
     RDKit          3D

 67 70  0  0  0  0  0  0  0  0999 V2000
  -16.3780   20.8270  -26.9620 C   0  0  0  0  0  0  0  0  0  0  0  0
  -17.8530   21.2320  -27.0550 C   0  0  0  0  0  0  0  0  0  0  0  0
  -18.1550   22.2130  -25.9020 C   0  0  0  0  0  0  0  0  0  0  0  0
  -18.1070   21.9640  -28.3700 C   0  0  0  0  0  0  0  0  0  0  0  0
  -18.7120   19.9160  -27.0020 C   0  0  0  0  0  0  0  0  0  0  0  0
  -19.0420   19.3480  -25.7650 C   0  0  0  0  0  0  0  0  0  0  0  0
  -19.8110   18.1780  -25.7130 C   0  0  0  0  0  0  0  0  0  0  0  0
  -20.2560   17.5950  -26.9030 C   0  0  0  0  0  0  0  0  0  0  0  0
  -21.0650   16.3570  -26.8090 N   0  0  0  0  0  0  0  0  0  0  0  0
  -22.4160   16.3170  -26.2330 C   0  0  0  0  0  0  0  0  0  0  0  0
  -23.2770   15.8710  -26.9070 O   0  0  0  0  0  0  0  0  0  0  0  0
  -22.7120   16.8370  -24.8080 C   0  0  0  0  0  0  0  0  0  0  0  0
  -23.1770   18.0800  -24.4210 C   0  0  0  0  0  0  0  0  0  0  0  0
  -23.3130   18.0760  -23.1000 N   0  0  0  0  0  0  0  0  0  0  0  0
  -22.9470   16.8730  -22.6650 C   0  0  0  0  0  0  0  0  0  0  0  0
  -22.5850   16.1120  -23.7170 N   0  0  0  0  0  0  0  0  0  0  0  0
  -20.5400   15.1940  -27.4610 C   0  0  0  0  0  0  0  0  0  0  0  0
  -20.0520   14.2030  -26.3630 C   0  0  0  0  0  0  0  0  0  0  0  0
  -19.3830   13.2400  -26.6390 O   0  0  0  0  0  0  0  0  0  0  0  0
  -20.4020   14.5240  -24.9690 N   0  0  0  0  0  0  0  0  0  0  0  0
  -20.0060   13.7100  -23.8470 C   0  0  0  0  0  0  0  0  0  0  0  0
  -18.7220   14.3240  -23.2950 C   0  0  0  0  0  0  0  0  0  0  0  0
  -18.2530   13.6180  -22.0240 C   0  0  0  0  0  0  0  0  0  0  0  0
  -19.3140   13.7240  -20.9680 C   0  0  0  0  0  0  0  0  0  0  0  0
  -20.6740   13.2430  -21.4270 C   0  0  0  0  0  0  0  0  0  0  0  0
  -21.1260   13.7820  -22.7930 C   0  0  0  0  0  0  0  0  0  0  0  0
  -21.4820   14.3390  -28.2550 C   0  0  0  0  0  0  0  0  0  0  0  0
  -21.6900   14.6570  -29.5500 C   0  0  0  0  0  0  0  0  0  0  0  0
  -22.5160   13.8610  -30.3030 C   0  0  0  0  0  0  0  0  0  0  0  0
  -23.1120   12.7550  -29.7270 C   0  0  0  0  0  0  0  0  0  0  0  0
  -22.8840   12.4510  -28.4390 N   0  0  0  0  0  0  0  0  0  0  0  0
  -22.0850   13.2470  -27.6940 C   0  0  0  0  0  0  0  0  0  0  0  0
  -19.9300   18.1440  -28.1280 C   0  0  0  0  0  0  0  0  0  0  0  0
  -19.1580   19.3180  -28.1810 C   0  0  0  0  0  0  0  0  0  0  0  0
  -16.0858   20.7468  -25.9046 H   0  0  0  0  0  0  0  0  0  0  0  0
  -16.2325   19.8557  -27.4573 H   0  0  0  0  0  0  0  0  0  0  0  0
  -15.7569   21.5879  -27.4573 H   0  0  0  0  0  0  0  0  0  0  0  0
  -17.9988   21.7057  -24.9386 H   0  0  0  0  0  0  0  0  0  0  0  0
  -17.4823   23.0804  -25.9729 H   0  0  0  0  0  0  0  0  0  0  0  0
  -19.1991   22.5519  -25.9729 H   0  0  0  0  0  0  0  0  0  0  0  0
  -18.4609   22.9840  -28.1594 H   0  0  0  0  0  0  0  0  0  0  0  0
  -17.1730   22.0122  -28.9491 H   0  0  0  0  0  0  0  0  0  0  0  0
  -18.8701   21.4234  -28.9491 H   0  0  0  0  0  0  0  0  0  0  0  0
  -18.6972   19.8209  -24.8336 H   0  0  0  0  0  0  0  0  0  0  0  0
  -20.0624   17.7221  -24.7440 H   0  0  0  0  0  0  0  0  0  0  0  0
  -23.3961   18.9249  -25.0904 H   0  0  0  0  0  0  0  0  0  0  0  0
  -23.6415   18.8603  -22.5188 H   0  0  0  0  0  0  0  0  0  0  0  0
  -22.9408   16.5505  -21.6133 H   0  0  0  0  0  0  0  0  0  0  0  0
  -19.7971   15.6245  -28.1486 H   0  0  0  0  0  0  0  0  0  0  0  0
  -20.8660   15.2320  -24.8190 H   0  0  0  0  0  0  0  0  0  0  0  0
  -19.8390   12.6588  -24.1248 H   0  0  0  0  0  0  0  0  0  0  0  0
  -17.9333   14.2443  -24.0576 H   0  0  0  0  0  0  0  0  0  0  0  0
  -18.9272   15.3753  -23.0448 H   0  0  0  0  0  0  0  0  0  0  0  0
  -18.0604   12.5576  -22.2442 H   0  0  0  0  0  0  0  0  0  0  0  0
  -17.3291   14.0929  -21.6623 H   0  0  0  0  0  0  0  0  0  0  0  0
  -19.0050   13.1197  -20.1023 H   0  0  0  0  0  0  0  0  0  0  0  0
  -19.4158   14.7904  -20.7179 H   0  0  0  0  0  0  0  0  0  0  0  0
  -20.6457   12.1449  -21.4857 H   0  0  0  0  0  0  0  0  0  0  0  0
  -21.3987   13.6223  -20.6916 H   0  0  0  0  0  0  0  0  0  0  0  0
  -21.9812   13.1856  -23.1437 H   0  0  0  0  0  0  0  0  0  0  0  0
  -21.4008   14.8393  -22.6644 H   0  0  0  0  0  0  0  0  0  0  0  0
  -21.2057   15.5391  -29.9942 H   0  0  0  0  0  0  0  0  0  0  0  0
  -22.7029   14.1020  -31.3599 H   0  0  0  0  0  0  0  0  0  0  0  0
  -23.7782   12.1189  -30.3282 H   0  0  0  0  0  0  0  0  0  0  0  0
  -21.9189   13.0155  -26.6315 H   0  0  0  0  0  0  0  0  0  0  0  0
  -20.2726   17.6652  -29.0572 H   0  0  0  0  0  0  0  0  0  0  0  0
  -18.9053   19.7656  -29.1535 H   0  0  0  0  0  0  0  0  0  0  0  0
  1  2  1  0
  2  3  1  0
  2  4  1  0
  2  5  1  0
  5  6  2  0
  6  7  1  0
  7  8  2  0
  8  9  1  0
  9 10  1  0
 10 11  2  0
 10 12  1  0
 12 13  2  0
 13 14  1  0
 14 15  1  0
 15 16  2  0
  9 17  1  0
 17 18  1  0
 18 19  2  0
 18 20  1  0
 20 21  1  0
 21 22  1  0
 22 23  1  0
 23 24  1  0
 24 25  1  0
 25 26  1  0
 17 27  1  0
 27 28  2  0
 28 29  1  0
 29 30  2  0
 30 31  1  0
 31 32  2  0
  8 33  1  0
 33 34  2  0
 34  5  1  0
 16 12  1  0
 26 21  1  0
 32 27  1  0
  1 35  1  0
  1 36  1  0
  1 37  1  0
  3 38  1  0
  3 39  1  0
  3 40  1  0
  4 41  1  0
  4 42  1  0
  4 43  1  0
  6 44  1  0
  7 45  1  0
 13 46  1  0
 14 47  1  0
 15 48  1  0
 17 49  1  0
 20 50  1  0
 21 51  1  0
 22 52  1  0
 22 53  1  0
 23 54  1  0
 23 55  1  0
 24 56  1  0
 24 57  1  0
 25 58  1  0
 25 59  1  0
 26 60  1  0
 26 61  1  0
 28 62  1  0
 29 63  1  0
 30 64  1  0
 32 65  1  0
 33 66  1  0
 34 67  1  0
M  END
>  <meeko>  (1) 
{"free_energy": -9.316, "intermolecular_energy": -11.702, "internal_energy": -3.33}

$$$$

     RDKit          3D

 67 70  0  0  0  0  0  0  0  0999 V2000
  -25.7680   16.3850  -31.8280 C   0  0  0  0  0  0  0  0  0  0  0  0
  -24.5540   17.1850  -32.3100 C   0  0  0  0  0  0  0  0  0  0  0  0
  -24.1440   16.6460  -33.6970 C   0  0  0  0  0  0  0  0  0  0  0  0
  -24.9310   18.6550  -32.4720 C   0  0  0  0  0  0  0  0  0  0  0  0
  -23.4270   17.0410  -31.2210 C   0  0  0  0  0  0  0  0  0  0  0  0
  -22.2600   16.3250  -31.5160 C   0  0  0  0  0  0  0  0  0  0  0  0
  -21.2530   16.1970  -30.5510 C   0  0  0  0  0  0  0  0  0  0  0  0
  -21.4170   16.8020  -29.3020 C   0  0  0  0  0  0  0  0  0  0  0  0
  -20.3310   16.6450  -28.3060 N   0  0  0  0  0  0  0  0  0  0  0  0
  -19.5260   17.7660  -27.8050 C   0  0  0  0  0  0  0  0  0  0  0  0
  -18.6240   18.1270  -28.4780 O   0  0  0  0  0  0  0  0  0  0  0  0
  -19.8310   18.4520  -26.4530 C   0  0  0  0  0  0  0  0  0  0  0  0
  -20.9830   19.1050  -26.0570 C   0  0  0  0  0  0  0  0  0  0  0  0
  -20.8140   19.5140  -24.8050 N   0  0  0  0  0  0  0  0  0  0  0  0
  -19.5980   19.1340  -24.4210 C   0  0  0  0  0  0  0  0  0  0  0  0
  -19.0000   18.4750  -25.4340 N   0  0  0  0  0  0  0  0  0  0  0  0
  -20.1900   15.3500  -27.7070 C   0  0  0  0  0  0  0  0  0  0  0  0
  -20.5290   15.4770  -26.1930 C   0  0  0  0  0  0  0  0  0  0  0  0
  -21.5120   16.0640  -25.8160 O   0  0  0  0  0  0  0  0  0  0  0  0
  -19.6230   14.8050  -25.2470 N   0  0  0  0  0  0  0  0  0  0  0  0
  -19.8170   14.8210  -23.8180 C   0  0  0  0  0  0  0  0  0  0  0  0
  -20.7180   13.6340  -23.4880 C   0  0  0  0  0  0  0  0  0  0  0  0
  -20.9140   13.4680  -21.9820 C   0  0  0  0  0  0  0  0  0  0  0  0
  -19.5840   13.2440  -21.3230 C   0  0  0  0  0  0  0  0  0  0  0  0
  -18.5570   14.3050  -21.6580 C   0  0  0  0  0  0  0  0  0  0  0  0
  -18.4400   14.6460  -23.1520 C   0  0  0  0  0  0  0  0  0  0  0  0
  -21.1240   14.2610  -28.1450 C   0  0  0  0  0  0  0  0  0  0  0  0
  -20.7550   13.4880  -29.1880 C   0  0  0  0  0  0  0  0  0  0  0  0
  -21.5760   12.4600  -29.5740 C   0  0  0  0  0  0  0  0  0  0  0  0
  -22.7560   12.2340  -28.8910 C   0  0  0  0  0  0  0  0  0  0  0  0
  -23.1010   13.0080  -27.8500 N   0  0  0  0  0  0  0  0  0  0  0  0
  -22.2990   14.0330  -27.4830 C   0  0  0  0  0  0  0  0  0  0  0  0
  -22.5680   17.5060  -28.9990 C   0  0  0  0  0  0  0  0  0  0  0  0
  -23.5790   17.6330  -29.9680 C   0  0  0  0  0  0  0  0  0  0  0  0
  -25.7861   16.3731  -30.7282 H   0  0  0  0  0  0  0  0  0  0  0  0
  -26.6891   16.8537  -32.2048 H   0  0  0  0  0  0  0  0  0  0  0  0
  -25.7007   15.3538  -32.2048 H   0  0  0  0  0  0  0  0  0  0  0  0
  -23.4824   15.7762  -33.5715 H   0  0  0  0  0  0  0  0  0  0  0  0
  -25.0435   16.3451  -34.2540 H   0  0  0  0  0  0  0  0  0  0  0  0
  -23.6139   17.4326  -34.2540 H   0  0  0  0  0  0  0  0  0  0  0  0
  -25.0489   19.1148  -31.4797 H   0  0  0  0  0  0  0  0  0  0  0  0
  -24.1379   19.1780  -33.0265 H   0  0  0  0  0  0  0  0  0  0  0  0
  -25.8779   18.7317  -33.0265 H   0  0  0  0  0  0  0  0  0  0  0  0
  -22.1342   15.8629  -32.5063 H   0  0  0  0  0  0  0  0  0  0  0  0
  -20.3404   15.6249  -30.7744 H   0  0  0  0  0  0  0  0  0  0  0  0
  -21.8824   19.2589  -26.6714 H   0  0  0  0  0  0  0  0  0  0  0  0
  -21.4990   20.0309  -24.2353 H   0  0  0  0  0  0  0  0  0  0  0  0
  -19.1517   19.3268  -23.4343 H   0  0  0  0  0  0  0  0  0  0  0  0
  -19.1662   15.0677  -27.9936 H   0  0  0  0  0  0  0  0  0  0  0  0
  -18.9440   14.3830  -25.5630 H   0  0  0  0  0  0  0  0  0  0  0  0
  -20.2721   15.7574  -23.4631 H   0  0  0  0  0  0  0  0  0  0  0  0
  -21.6996   13.7910  -23.9591 H   0  0  0  0  0  0  0  0  0  0  0  0
  -20.2350   12.7230  -23.8711 H   0  0  0  0  0  0  0  0  0  0  0  0
  -21.3779   14.3767  -21.5708 H   0  0  0  0  0  0  0  0  0  0  0  0
  -21.5664   12.6031  -21.7916 H   0  0  0  0  0  0  0  0  0  0  0  0
  -19.7326   13.2353  -20.2331 H   0  0  0  0  0  0  0  0  0  0  0  0
  -19.1941   12.2865  -21.6989 H   0  0  0  0  0  0  0  0  0  0  0  0
  -18.8275   15.2245  -21.1182 H   0  0  0  0  0  0  0  0  0  0  0  0
  -17.5814   13.8943  -21.3588 H   0  0  0  0  0  0  0  0  0  0  0  0
  -17.8735   15.5829  -23.2582 H   0  0  0  0  0  0  0  0  0  0  0  0
  -17.9277   13.8097  -23.6502 H   0  0  0  0  0  0  0  0  0  0  0  0
  -19.8112   13.6796  -29.7196 H   0  0  0  0  0  0  0  0  0  0  0  0
  -21.2969   11.8185  -30.4229 H   0  0  0  0  0  0  0  0  0  0  0  0
  -23.4181   11.4129  -29.2031 H   0  0  0  0  0  0  0  0  0  0  0  0
  -22.5929   14.6864  -26.6483 H   0  0  0  0  0  0  0  0  0  0  0  0
  -22.6919   17.9637  -28.0064 H   0  0  0  0  0  0  0  0  0  0  0  0
  -24.4922   18.2009  -29.7368 H   0  0  0  0  0  0  0  0  0  0  0  0
  1  2  1  0
  2  3  1  0
  2  4  1  0
  2  5  1  0
  5  6  2  0
  6  7  1  0
  7  8  2  0
  8  9  1  0
  9 10  1  0
 10 11  2  0
 10 12  1  0
 12 13  2  0
 13 14  1  0
 14 15  1  0
 15 16  2  0
  9 17  1  0
 17 18  1  0
 18 19  2  0
 18 20  1  0
 20 21  1  0
 21 22  1  0
 22 23  1  0
 23 24  1  0
 24 25  1  0
 25 26  1  0
 17 27  1  0
 27 28  2  0
 28 29  1  0
 29 30  2  0
 30 31  1  0
 31 32  2  0
  8 33  1  0
 33 34  2  0
 34  5  1  0
 16 12  1  0
 26 21  1  0
 32 27  1  0
  1 35  1  0
  1 36  1  0
  1 37  1  0
  3 38  1  0
  3 39  1  0
  3 40  1  0
  4 41  1  0
  4 42  1  0
  4 43  1  0
  6 44  1  0
  7 45  1  0
 13 46  1  0
 14 47  1  0
 15 48  1  0
 17 49  1  0
 20 50  1  0
 21 51  1  0
 22 52  1  0
 22 53  1  0
 23 54  1  0
 23 55  1  0
 24 56  1  0
 24 57  1  0
 25 58  1  0
 25 59  1  0
 26 60  1  0
 26 61  1  0
 28 62  1  0
 29 63  1  0
 30 64  1  0
 32 65  1  0
 33 66  1  0
 34 67  1  0
M  END
>  <meeko>  (2) 
{"free_energy": -9.226, "intermolecular_energy": -11.612, "internal_energy": -2.679}

$$$$

     RDKit          3D

 67 70  0  0  0  0  0  0  0  0999 V2000
  -19.7290   13.5170  -21.3770 C   0  0  0  0  0  0  0  0  0  0  0  0
  -20.9390   14.3740  -21.7630 C   0  0  0  0  0  0  0  0  0  0  0  0
  -22.2160   13.6190  -21.3380 C   0  0  0  0  0  0  0  0  0  0  0  0
  -20.9020   15.6960  -21.0020 C   0  0  0  0  0  0  0  0  0  0  0  0
  -20.8550   14.6460  -23.3100 C   0  0  0  0  0  0  0  0  0  0  0  0
  -19.8340   14.0600  -24.0660 C   0  0  0  0  0  0  0  0  0  0  0  0
  -19.7570   14.2960  -25.4450 C   0  0  0  0  0  0  0  0  0  0  0  0
  -20.7170   15.1080  -26.0570 C   0  0  0  0  0  0  0  0  0  0  0  0
  -20.6040   15.3360  -27.5170 N   0  0  0  0  0  0  0  0  0  0  0  0
  -20.3120   14.2680  -28.4820 C   0  0  0  0  0  0  0  0  0  0  0  0
  -19.2370   14.2620  -28.9730 O   0  0  0  0  0  0  0  0  0  0  0  0
  -21.3600   13.1930  -28.8530 C   0  0  0  0  0  0  0  0  0  0  0  0
  -22.5220   12.8540  -28.1860 C   0  0  0  0  0  0  0  0  0  0  0  0
  -23.1290   11.8970  -28.8780 N   0  0  0  0  0  0  0  0  0  0  0  0
  -22.3780   11.6390  -29.9460 C   0  0  0  0  0  0  0  0  0  0  0  0
  -21.2950   12.4420  -29.9310 N   0  0  0  0  0  0  0  0  0  0  0  0
  -20.9550   16.6420  -27.9920 C   0  0  0  0  0  0  0  0  0  0  0  0
  -19.6450   17.4650  -28.1600 C   0  0  0  0  0  0  0  0  0  0  0  0
  -18.6220   16.9500  -28.5330 O   0  0  0  0  0  0  0  0  0  0  0  0
  -19.7250   18.9110  -27.8910 N   0  0  0  0  0  0  0  0  0  0  0  0
  -18.6000   19.8030  -28.0200 C   0  0  0  0  0  0  0  0  0  0  0  0
  -19.1680   21.1720  -28.3860 C   0  0  0  0  0  0  0  0  0  0  0  0
  -18.0820   22.2440  -28.4440 C   0  0  0  0  0  0  0  0  0  0  0  0
  -17.4140   22.3580  -27.1050 C   0  0  0  0  0  0  0  0  0  0  0  0
  -16.8960   21.0380  -26.5730 C   0  0  0  0  0  0  0  0  0  0  0  0
  -17.8900   19.8690  -26.6550 C   0  0  0  0  0  0  0  0  0  0  0  0
  -21.5730   16.7590  -29.3540 C   0  0  0  0  0  0  0  0  0  0  0  0
  -22.6890   16.0450  -29.6100 C   0  0  0  0  0  0  0  0  0  0  0  0
  -23.2910   16.1720  -30.8360 C   0  0  0  0  0  0  0  0  0  0  0  0
  -22.7490   17.0260  -31.7790 C   0  0  0  0  0  0  0  0  0  0  0  0
  -21.6420   17.7340  -31.5010 N   0  0  0  0  0  0  0  0  0  0  0  0
  -21.0400   17.5930  -30.2990 C   0  0  0  0  0  0  0  0  0  0  0  0
  -21.7260   15.6950  -25.3180 C   0  0  0  0  0  0  0  0  0  0  0  0
  -21.8020   15.4590  -23.9340 C   0  0  0  0  0  0  0  0  0  0  0  0
  -19.6526   13.4629  -20.2810 H   0  0  0  0  0  0  0  0  0  0  0  0
  -19.8519   12.5035  -21.7864 H   0  0  0  0  0  0  0  0  0  0  0  0
  -18.8137   13.9693  -21.7864 H   0  0  0  0  0  0  0  0  0  0  0  0
  -22.2736   13.5850  -20.2400 H   0  0  0  0  0  0  0  0  0  0  0  0
  -23.0995   14.1401  -21.7355 H   0  0  0  0  0  0  0  0  0  0  0  0
  -22.1853   12.5938  -21.7355 H   0  0  0  0  0  0  0  0  0  0  0  0
  -20.9076   15.4966  -19.9202 H   0  0  0  0  0  0  0  0  0  0  0  0
  -19.9881   16.2471  -21.2686 H   0  0  0  0  0  0  0  0  0  0  0  0
  -21.7837   16.2973  -21.2686 H   0  0  0  0  0  0  0  0  0  0  0  0
  -19.0907   13.4131  -23.5771 H   0  0  0  0  0  0  0  0  0  0  0  0
  -18.9488   13.8467  -26.0407 H   0  0  0  0  0  0  0  0  0  0  0  0
  -22.8811   13.2991  -27.2464 H   0  0  0  0  0  0  0  0  0  0  0  0
  -24.0181   11.4384  -28.6331 H   0  0  0  0  0  0  0  0  0  0  0  0
  -22.6049   10.8895  -30.7185 H   0  0  0  0  0  0  0  0  0  0  0  0
  -21.6912   16.9740  -27.2452 H   0  0  0  0  0  0  0  0  0  0  0  0
  -20.4800   19.2380  -27.6440 H   0  0  0  0  0  0  0  0  0  0  0  0
  -17.8822   19.4700  -28.7841 H   0  0  0  0  0  0  0  0  0  0  0  0
  -19.6528   21.1037  -29.3710 H   0  0  0  0  0  0  0  0  0  0  0  0
  -19.8893   21.4603  -27.6071 H   0  0  0  0  0  0  0  0  0  0  0  0
  -17.3354   21.9678  -29.2031 H   0  0  0  0  0  0  0  0  0  0  0  0
  -18.5366   23.2101  -28.7085 H   0  0  0  0  0  0  0  0  0  0  0  0
  -16.5663   23.0529  -27.1970 H   0  0  0  0  0  0  0  0  0  0  0  0
  -18.1732   22.7172  -26.3946 H   0  0  0  0  0  0  0  0  0  0  0  0
  -16.0004   20.7653  -27.1505 H   0  0  0  0  0  0  0  0  0  0  0  0
  -16.6950   21.1957  -25.5031 H   0  0  0  0  0  0  0  0  0  0  0  0
  -17.3439   18.9278  -26.4940 H   0  0  0  0  0  0  0  0  0  0  0  0
  -18.6576   20.0240  -25.8825 H   0  0  0  0  0  0  0  0  0  0  0  0
  -23.1091   15.3721  -28.8480 H   0  0  0  0  0  0  0  0  0  0  0  0
  -24.2000   15.5976  -31.0678 H   0  0  0  0  0  0  0  0  0  0  0  0
  -23.2281   17.1262  -32.7641 H   0  0  0  0  0  0  0  0  0  0  0  0
  -20.1178   18.1510  -30.0795 H   0  0  0  0  0  0  0  0  0  0  0  0
  -22.4660   16.3435  -25.8098 H   0  0  0  0  0  0  0  0  0  0  0  0
  -22.6090   15.9158  -23.3424 H   0  0  0  0  0  0  0  0  0  0  0  0
  1  2  1  0
  2  3  1  0
  2  4  1  0
  2  5  1  0
  5  6  2  0
  6  7  1  0
  7  8  2  0
  8  9  1  0
  9 10  1  0
 10 11  2  0
 10 12  1  0
 12 13  2  0
 13 14  1  0
 14 15  1  0
 15 16  2  0
  9 17  1  0
 17 18  1  0
 18 19  2  0
 18 20  1  0
 20 21  1  0
 21 22  1  0
 22 23  1  0
 23 24  1  0
 24 25  1  0
 25 26  1  0
 17 27  1  0
 27 28  2  0
 28 29  1  0
 29 30  2  0
 30 31  1  0
 31 32  2  0
  8 33  1  0
 33 34  2  0
 34  5  1  0
 16 12  1  0
 26 21  1  0
 32 27  1  0
  1 35  1  0
  1 36  1  0
  1 37  1  0
  3 38  1  0
  3 39  1  0
  3 40  1  0
  4 41  1  0
  4 42  1  0
  4 43  1  0
  6 44  1  0
  7 45  1  0
 13 46  1  0
 14 47  1  0
 15 48  1  0
 17 49  1  0
 20 50  1  0
 21 51  1  0
 22 52  1  0
 22 53  1  0
 23 54  1  0
 23 55  1  0
 24 56  1  0
 24 57  1  0
 25 58  1  0
 25 59  1  0
 26 60  1  0
 26 61  1  0
 28 62  1  0
 29 63  1  0
 30 64  1  0
 32 65  1  0
 33 66  1  0
 34 67  1  0
M  END
>  <meeko>  (3) 
{"free_energy": -9.177, "intermolecular_energy": -11.563, "internal_energy": -2.458}

$$$$

     RDKit          3D

 67 70  0  0  0  0  0  0  0  0999 V2000
  -17.1790   22.2440  -28.1210 C   0  0  0  0  0  0  0  0  0  0  0  0
  -17.4120   21.5260  -26.7880 C   0  0  0  0  0  0  0  0  0  0  0  0
  -16.0350   21.1550  -26.1960 C   0  0  0  0  0  0  0  0  0  0  0  0
  -18.1060   22.4660  -25.8060 C   0  0  0  0  0  0  0  0  0  0  0  0
  -18.3300   20.2800  -27.0730 C   0  0  0  0  0  0  0  0  0  0  0  0
  -19.6130   20.2190  -26.5170 C   0  0  0  0  0  0  0  0  0  0  0  0
  -20.4360   19.1140  -26.7720 C   0  0  0  0  0  0  0  0  0  0  0  0
  -19.9690   18.0850  -27.5950 C   0  0  0  0  0  0  0  0  0  0  0  0
  -20.8660   16.9310  -27.8410 N   0  0  0  0  0  0  0  0  0  0  0  0
  -22.1960   17.0580  -28.4510 C   0  0  0  0  0  0  0  0  0  0  0  0
  -23.0800   17.4150  -27.7530 O   0  0  0  0  0  0  0  0  0  0  0  0
  -22.4440   16.7360  -29.9430 C   0  0  0  0  0  0  0  0  0  0  0  0
  -23.2310   15.7400  -30.4920 C   0  0  0  0  0  0  0  0  0  0  0  0
  -23.1730   15.8530  -31.8140 N   0  0  0  0  0  0  0  0  0  0  0  0
  -22.3770   16.8830  -32.0930 C   0  0  0  0  0  0  0  0  0  0  0  0
  -21.9370   17.4270  -30.9410 N   0  0  0  0  0  0  0  0  0  0  0  0
  -20.3180   15.6290  -27.6040 C   0  0  0  0  0  0  0  0  0  0  0  0
  -20.3110   15.3780  -26.0680 C   0  0  0  0  0  0  0  0  0  0  0  0
  -20.7500   16.1920  -25.2960 O   0  0  0  0  0  0  0  0  0  0  0  0
  -19.7920   14.0790  -25.6050 N   0  0  0  0  0  0  0  0  0  0  0  0
  -19.7390   13.6990  -24.2150 C   0  0  0  0  0  0  0  0  0  0  0  0
  -18.6670   14.5700  -23.5650 C   0  0  0  0  0  0  0  0  0  0  0  0
  -18.5860   14.3440  -22.0570 C   0  0  0  0  0  0  0  0  0  0  0  0
  -19.9070   14.6770  -21.4260 C   0  0  0  0  0  0  0  0  0  0  0  0
  -21.0780   13.9530  -22.0560 C   0  0  0  0  0  0  0  0  0  0  0  0
  -21.1150   13.9930  -23.5920 C   0  0  0  0  0  0  0  0  0  0  0  0
  -21.0750   14.4370  -28.1110 C   0  0  0  0  0  0  0  0  0  0  0  0
  -20.6090   13.8080  -29.2100 C   0  0  0  0  0  0  0  0  0  0  0  0
  -21.2650   12.6900  -29.6620 C   0  0  0  0  0  0  0  0  0  0  0  0
  -22.3800   12.2320  -28.9870 C   0  0  0  0  0  0  0  0  0  0  0  0
  -22.8230   12.8680  -27.8900 N   0  0  0  0  0  0  0  0  0  0  0  0
  -22.1870   13.9790  -27.4570 C   0  0  0  0  0  0  0  0  0  0  0  0
  -18.7020   18.1340  -28.1440 C   0  0  0  0  0  0  0  0  0  0  0  0
  -17.8760   19.2430  -27.8870 C   0  0  0  0  0  0  0  0  0  0  0  0
  -16.8447   23.2742  -27.9290 H   0  0  0  0  0  0  0  0  0  0  0  0
  -16.4082   21.7094  -28.6956 H   0  0  0  0  0  0  0  0  0  0  0  0
  -18.1168   22.2639  -28.6956 H   0  0  0  0  0  0  0  0  0  0  0  0
  -16.0919   21.1703  -25.0976 H   0  0  0  0  0  0  0  0  0  0  0  0
  -15.7497   20.1480  -26.5343 H   0  0  0  0  0  0  0  0  0  0  0  0
  -15.2824   21.8824  -26.5343 H   0  0  0  0  0  0  0  0  0  0  0  0
  -17.8764   22.1550  -24.7762 H   0  0  0  0  0  0  0  0  0  0  0  0
  -17.7483   23.4937  -25.9671 H   0  0  0  0  0  0  0  0  0  0  0  0
  -19.1934   22.4268  -25.9671 H   0  0  0  0  0  0  0  0  0  0  0  0
  -19.9754   21.0389  -25.8795 H   0  0  0  0  0  0  0  0  0  0  0  0
  -21.4410   19.0567  -26.3284 H   0  0  0  0  0  0  0  0  0  0  0  0
  -23.8043   14.9865  -29.9320 H   0  0  0  0  0  0  0  0  0  0  0  0
  -23.6557   15.2533  -32.4984 H   0  0  0  0  0  0  0  0  0  0  0  0
  -22.1194   17.2342  -33.1031 H   0  0  0  0  0  0  0  0  0  0  0  0
  -19.3543   15.6801  -28.1319 H   0  0  0  0  0  0  0  0  0  0  0  0
  -19.5060   13.5220  -26.1930 H   0  0  0  0  0  0  0  0  0  0  0  0
  -19.5014   12.6339  -24.0765 H   0  0  0  0  0  0  0  0  0  0  0  0
  -17.6922   14.3281  -24.0136 H   0  0  0  0  0  0  0  0  0  0  0  0
  -18.9330   15.6233  -23.7378 H   0  0  0  0  0  0  0  0  0  0  0  0
  -18.3402   13.2906  -21.8574 H   0  0  0  0  0  0  0  0  0  0  0  0
  -17.8047   14.9914  -21.6321 H   0  0  0  0  0  0  0  0  0  0  0  0
  -19.8622   14.4055  -20.3610 H   0  0  0  0  0  0  0  0  0  0  0  0
  -20.0744   15.7538  -21.5759 H   0  0  0  0  0  0  0  0  0  0  0  0
  -21.0365   12.8993  -21.7428 H   0  0  0  0  0  0  0  0  0  0  0  0
  -21.9834   14.4748  -21.7126 H   0  0  0  0  0  0  0  0  0  0  0  0
  -21.8334   13.2402  -23.9487 H   0  0  0  0  0  0  0  0  0  0  0  0
  -21.4134   15.0072  -23.8961 H   0  0  0  0  0  0  0  0  0  0  0  0
  -19.7186   14.1846  -29.7348 H   0  0  0  0  0  0  0  0  0  0  0  0
  -20.9047   12.1616  -30.5570 H   0  0  0  0  0  0  0  0  0  0  0  0
  -22.9094   11.3391  -29.3509 H   0  0  0  0  0  0  0  0  0  0  0  0
  -22.5645   14.5176  -26.5753 H   0  0  0  0  0  0  0  0  0  0  0  0
  -18.3415   17.3107  -28.7782 H   0  0  0  0  0  0  0  0  0  0  0  0
  -16.8699   19.2923  -28.3290 H   0  0  0  0  0  0  0  0  0  0  0  0
  1  2  1  0
  2  3  1  0
  2  4  1  0
  2  5  1  0
  5  6  2  0
  6  7  1  0
  7  8  2  0
  8  9  1  0
  9 10  1  0
 10 11  2  0
 10 12  1  0
 12 13  2  0
 13 14  1  0
 14 15  1  0
 15 16  2  0
  9 17  1  0
 17 18  1  0
 18 19  2  0
 18 20  1  0
 20 21  1  0
 21 22  1  0
 22 23  1  0
 23 24  1  0
 24 25  1  0
 25 26  1  0
 17 27  1  0
 27 28  2  0
 28 29  1  0
 29 30  2  0
 30 31  1  0
 31 32  2  0
  8 33  1  0
 33 34  2  0
 34  5  1  0
 16 12  1  0
 26 21  1  0
 32 27  1  0
  1 35  1  0
  1 36  1  0
  1 37  1  0
  3 38  1  0
  3 39  1  0
  3 40  1  0
  4 41  1  0
  4 42  1  0
  4 43  1  0
  6 44  1  0
  7 45  1  0
 13 46  1  0
 14 47  1  0
 15 48  1  0
 17 49  1  0
 20 50  1  0
 21 51  1  0
 22 52  1  0
 22 53  1  0
 23 54  1  0
 23 55  1  0
 24 56  1  0
 24 57  1  0
 25 58  1  0
 25 59  1  0
 26 60  1  0
 26 61  1  0
 28 62  1  0
 29 63  1  0
 30 64  1  0
 32 65  1  0
 33 66  1  0
 34 67  1  0
M  END
>  <meeko>  (4) 
{"free_energy": -9.118, "intermolecular_energy": -11.505, "internal_energy": -2.733}

$$$$

     RDKit          3D

 67 70  0  0  0  0  0  0  0  0999 V2000
  -16.3780   20.7640  -26.8260 C   0  0  0  0  0  0  0  0  0  0  0  0
  -17.8540   21.1500  -26.9630 C   0  0  0  0  0  0  0  0  0  0  0  0
  -18.2020   22.1280  -25.8210 C   0  0  0  0  0  0  0  0  0  0  0  0
  -18.0790   21.8770  -28.2860 C   0  0  0  0  0  0  0  0  0  0  0  0
  -18.6980   19.8230  -26.9340 C   0  0  0  0  0  0  0  0  0  0  0  0
  -19.4560   19.5040  -25.8000 C   0  0  0  0  0  0  0  0  0  0  0  0
  -20.2130   18.3260  -25.7710 C   0  0  0  0  0  0  0  0  0  0  0  0
  -20.2140   17.4820  -26.8860 C   0  0  0  0  0  0  0  0  0  0  0  0
  -21.0250   16.2440  -26.8190 N   0  0  0  0  0  0  0  0  0  0  0  0
  -22.3970   16.2040  -26.2990 C   0  0  0  0  0  0  0  0  0  0  0  0
  -22.6920   15.2800  -25.6230 O   0  0  0  0  0  0  0  0  0  0  0  0
  -23.4250   17.3140  -26.6180 C   0  0  0  0  0  0  0  0  0  0  0  0
  -24.4440   17.8020  -25.8220 C   0  0  0  0  0  0  0  0  0  0  0  0
  -25.0580   18.7720  -26.4890 N   0  0  0  0  0  0  0  0  0  0  0  0
  -24.4510   18.8930  -27.6670 C   0  0  0  0  0  0  0  0  0  0  0  0
  -23.4430   18.0010  -27.7400 N   0  0  0  0  0  0  0  0  0  0  0  0
  -20.4710   15.0780  -27.4430 C   0  0  0  0  0  0  0  0  0  0  0  0
  -20.0370   14.0890  -26.3220 C   0  0  0  0  0  0  0  0  0  0  0  0
  -19.4740   13.0560  -26.5790 O   0  0  0  0  0  0  0  0  0  0  0  0
  -20.3000   14.4980  -24.9320 N   0  0  0  0  0  0  0  0  0  0  0  0
  -19.9400   13.6940  -23.7890 C   0  0  0  0  0  0  0  0  0  0  0  0
  -18.6780   14.3180  -23.1990 C   0  0  0  0  0  0  0  0  0  0  0  0
  -18.2500   13.6240  -21.9070 C   0  0  0  0  0  0  0  0  0  0  0  0
  -19.3470   13.7340  -20.8890 C   0  0  0  0  0  0  0  0  0  0  0  0
  -20.6890   13.2430  -21.3900 C   0  0  0  0  0  0  0  0  0  0  0  0
  -21.0960   13.7700  -22.7760 C   0  0  0  0  0  0  0  0  0  0  0  0
  -21.3760   14.2230  -28.2790 C   0  0  0  0  0  0  0  0  0  0  0  0
  -21.3860   14.4240  -29.6140 C   0  0  0  0  0  0  0  0  0  0  0  0
  -22.1760   13.6220  -30.3990 C   0  0  0  0  0  0  0  0  0  0  0  0
  -22.9380   12.6300  -29.8130 C   0  0  0  0  0  0  0  0  0  0  0  0
  -22.9080   12.4410  -28.4840 N   0  0  0  0  0  0  0  0  0  0  0  0
  -22.1430   13.2440  -27.7100 C   0  0  0  0  0  0  0  0  0  0  0  0
  -19.4650   17.7860  -28.0070 C   0  0  0  0  0  0  0  0  0  0  0  0
  -18.7050   18.9690  -28.0360 C   0  0  0  0  0  0  0  0  0  0  0  0
  -16.1144   20.6951  -25.7603 H   0  0  0  0  0  0  0  0  0  0  0  0
  -16.2071   19.7909  -27.3097 H   0  0  0  0  0  0  0  0  0  0  0  0
  -15.7526   21.5288  -27.3097 H   0  0  0  0  0  0  0  0  0  0  0  0
  -18.0274   21.6373  -24.8521 H   0  0  0  0  0  0  0  0  0  0  0  0
  -17.5671   23.0230  -25.8985 H   0  0  0  0  0  0  0  0  0  0  0  0
  -19.2595   22.4208  -25.8985 H   0  0  0  0  0  0  0  0  0  0  0  0
  -18.3988   22.9104  -28.0867 H   0  0  0  0  0  0  0  0  0  0  0  0
  -17.1422   21.8878  -28.8624 H   0  0  0  0  0  0  0  0  0  0  0  0
  -18.8582   21.3567  -28.8624 H   0  0  0  0  0  0  0  0  0  0  0  0
  -19.4567   20.1792  -24.9316 H   0  0  0  0  0  0  0  0  0  0  0  0
  -20.8018   18.0669  -24.8787 H   0  0  0  0  0  0  0  0  0  0  0  0
  -24.7013   17.4486  -24.8126 H   0  0  0  0  0  0  0  0  0  0  0  0
  -25.8578   19.3289  -26.1557 H   0  0  0  0  0  0  0  0  0  0  0  0
  -24.7279   19.6076  -28.4561 H   0  0  0  0  0  0  0  0  0  0  0  0
  -19.6954   15.5059  -28.0952 H   0  0  0  0  0  0  0  0  0  0  0  0
  -20.6880   15.2520  -24.7950 H   0  0  0  0  0  0  0  0  0  0  0  0
  -19.7596   12.6410  -24.0511 H   0  0  0  0  0  0  0  0  0  0  0  0
  -17.8635   14.2355  -23.9337 H   0  0  0  0  0  0  0  0  0  0  0  0
  -18.8955   15.3705  -22.9648 H   0  0  0  0  0  0  0  0  0  0  0  0
  -18.0458   12.5627  -22.1119 H   0  0  0  0  0  0  0  0  0  0  0  0
  -17.3408   14.1055  -21.5177 H   0  0  0  0  0  0  0  0  0  0  0  0
  -19.0653   13.1384  -20.0082 H   0  0  0  0  0  0  0  0  0  0  0  0
  -19.4618   14.8020  -20.6519 H   0  0  0  0  0  0  0  0  0  0  0  0
  -20.6542   12.1446  -21.4390 H   0  0  0  0  0  0  0  0  0  0  0  0
  -21.4402   13.6243  -20.6827 H   0  0  0  0  0  0  0  0  0  0  0  0
  -21.9362   13.1675  -23.1514 H   0  0  0  0  0  0  0  0  0  0  0  0
  -21.3794   14.8271  -22.6656 H   0  0  0  0  0  0  0  0  0  0  0  0
  -20.7714   15.2171  -30.0649 H   0  0  0  0  0  0  0  0  0  0  0  0
  -22.2022   13.7684  -31.4889 H   0  0  0  0  0  0  0  0  0  0  0  0
  -23.5749   11.9893  -30.4406 H   0  0  0  0  0  0  0  0  0  0  0  0
  -22.1377   13.1092  -26.6183 H   0  0  0  0  0  0  0  0  0  0  0  0
  -19.4633   17.1063  -28.8719 H   0  0  0  0  0  0  0  0  0  0  0  0
  -18.1151   19.2209  -28.9296 H   0  0  0  0  0  0  0  0  0  0  0  0
  1  2  1  0
  2  3  1  0
  2  4  1  0
  2  5  1  0
  5  6  2  0
  6  7  1  0
  7  8  2  0
  8  9  1  0
  9 10  1  0
 10 11  2  0
 10 12  1  0
 12 13  2  0
 13 14  1  0
 14 15  1  0
 15 16  2  0
  9 17  1  0
 17 18  1  0
 18 19  2  0
 18 20  1  0
 20 21  1  0
 21 22  1  0
 22 23  1  0
 23 24  1  0
 24 25  1  0
 25 26  1  0
 17 27  1  0
 27 28  2  0
 28 29  1  0
 29 30  2  0
 30 31  1  0
 31 32  2  0
  8 33  1  0
 33 34  2  0
 34  5  1  0
 16 12  1  0
 26 21  1  0
 32 27  1  0
  1 35  1  0
  1 36  1  0
  1 37  1  0
  3 38  1  0
  3 39  1  0
  3 40  1  0
  4 41  1  0
  4 42  1  0
  4 43  1  0
  6 44  1  0
  7 45  1  0
 13 46  1  0
 14 47  1  0
 15 48  1  0
 17 49  1  0
 20 50  1  0
 21 51  1  0
 22 52  1  0
 22 53  1  0
 23 54  1  0
 23 55  1  0
 24 56  1  0
 24 57  1  0
 25 58  1  0
 25 59  1  0
 26 60  1  0
 26 61  1  0
 28 62  1  0
 29 63  1  0
 30 64  1  0
 32 65  1  0
 33 66  1  0
 34 67  1  0
M  END
>  <meeko>  (5) 
{"free_energy": -9.095, "intermolecular_energy": -11.482, "internal_energy": -3.228}

$$$$

     RDKit          3D

 67 70  0  0  0  0  0  0  0  0999 V2000
  -19.4560   13.3720  -28.7870 C   0  0  0  0  0  0  0  0  0  0  0  0
  -20.8130   14.0790  -28.7220 C   0  0  0  0  0  0  0  0  0  0  0  0
  -21.6430   13.6380  -29.9470 C   0  0  0  0  0  0  0  0  0  0  0  0
  -21.5650   13.6440  -27.4670 C   0  0  0  0  0  0  0  0  0  0  0  0
  -20.5410   15.6280  -28.6710 C   0  0  0  0  0  0  0  0  0  0  0  0
  -21.6080   16.5170  -28.4900 C   0  0  0  0  0  0  0  0  0  0  0  0
  -21.3700   17.8970  -28.4400 C   0  0  0  0  0  0  0  0  0  0  0  0
  -20.0610   18.3730  -28.5560 C   0  0  0  0  0  0  0  0  0  0  0  0
  -19.8480   19.8380  -28.4990 N   0  0  0  0  0  0  0  0  0  0  0  0
  -19.9780   20.7200  -29.6670 C   0  0  0  0  0  0  0  0  0  0  0  0
  -19.7530   21.8680  -29.5050 O   0  0  0  0  0  0  0  0  0  0  0  0
  -20.3960   20.1810  -31.0550 C   0  0  0  0  0  0  0  0  0  0  0  0
  -20.1020   20.6930  -32.3040 C   0  0  0  0  0  0  0  0  0  0  0  0
  -20.6410   19.8910  -33.2150 N   0  0  0  0  0  0  0  0  0  0  0  0
  -21.2560   18.9060  -32.5660 C   0  0  0  0  0  0  0  0  0  0  0  0
  -21.0970   19.0830  -31.2390 N   0  0  0  0  0  0  0  0  0  0  0  0
  -19.6610   20.4110  -27.1990 C   0  0  0  0  0  0  0  0  0  0  0  0
  -19.4250   19.2510  -26.1880 C   0  0  0  0  0  0  0  0  0  0  0  0
  -18.3170   18.9480  -25.8270 O   0  0  0  0  0  0  0  0  0  0  0  0
  -20.6210   18.5750  -25.6560 N   0  0  0  0  0  0  0  0  0  0  0  0
  -20.5600   17.4960  -24.7010 C   0  0  0  0  0  0  0  0  0  0  0  0
  -21.9060   16.7790  -24.7670 C   0  0  0  0  0  0  0  0  0  0  0  0
  -21.9360   15.5380  -23.8780 C   0  0  0  0  0  0  0  0  0  0  0  0
  -20.8710   14.5760  -24.3200 C   0  0  0  0  0  0  0  0  0  0  0  0
  -19.4920   15.1960  -24.4010 C   0  0  0  0  0  0  0  0  0  0  0  0
  -19.4290   16.5460  -25.1330 C   0  0  0  0  0  0  0  0  0  0  0  0
  -18.4560   21.2730  -26.9700 C   0  0  0  0  0  0  0  0  0  0  0  0
  -18.5200   22.2120  -26.0020 C   0  0  0  0  0  0  0  0  0  0  0  0
  -17.4120   22.9810  -25.7500 C   0  0  0  0  0  0  0  0  0  0  0  0
  -16.2590   22.7800  -26.4840 C   0  0  0  0  0  0  0  0  0  0  0  0
  -16.2120   21.8350  -27.4370 N   0  0  0  0  0  0  0  0  0  0  0  0
  -17.3110   21.0910  -27.6970 C   0  0  0  0  0  0  0  0  0  0  0  0
  -19.0030   17.5040  -28.7400 C   0  0  0  0  0  0  0  0  0  0  0  0
  -19.2420   16.1190  -28.7920 C   0  0  0  0  0  0  0  0  0  0  0  0
  -19.0921   13.1824  -27.7664 H   0  0  0  0  0  0  0  0  0  0  0  0
  -19.5656   12.4164  -29.3206 H   0  0  0  0  0  0  0  0  0  0  0  0
  -18.7356   14.0094  -29.3206 H   0  0  0  0  0  0  0  0  0  0  0  0
  -22.5667   13.1472  -29.6066 H   0  0  0  0  0  0  0  0  0  0  0  0
  -21.8982   14.5194  -30.5536 H   0  0  0  0  0  0  0  0  0  0  0  0
  -21.0554   12.9332  -30.5536 H   0  0  0  0  0  0  0  0  0  0  0  0
  -21.0075   13.9665  -26.5752 H   0  0  0  0  0  0  0  0  0  0  0  0
  -22.5644   14.1035  -27.4607 H   0  0  0  0  0  0  0  0  0  0  0  0
  -21.6650   12.5486  -27.4607 H   0  0  0  0  0  0  0  0  0  0  0  0
  -22.6332   16.1318  -28.3871 H   0  0  0  0  0  0  0  0  0  0  0  0
  -22.2063   18.5997  -28.3106 H   0  0  0  0  0  0  0  0  0  0  0  0
  -19.5227   21.6055  -32.5082 H   0  0  0  0  0  0  0  0  0  0  0  0
  -20.5919   20.0099  -34.2369 H   0  0  0  0  0  0  0  0  0  0  0  0
  -21.8068   18.0786  -33.0372 H   0  0  0  0  0  0  0  0  0  0  0  0
  -20.5610   21.0330  -27.0844 H   0  0  0  0  0  0  0  0  0  0  0  0
  -21.3920   18.8370  -25.9290 H   0  0  0  0  0  0  0  0  0  0  0  0
  -20.3637   17.8477  -23.6774 H   0  0  0  0  0  0  0  0  0  0  0  0
  -22.6942   17.4717  -24.4369 H   0  0  0  0  0  0  0  0  0  0  0  0
  -22.0695   16.4572  -25.8061 H   0  0  0  0  0  0  0  0  0  0  0  0
  -21.7538   15.8313  -22.8336 H   0  0  0  0  0  0  0  0  0  0  0  0
  -22.9209   15.0548  -23.9582 H   0  0  0  0  0  0  0  0  0  0  0  0
  -20.8361   13.7421  -23.6035 H   0  0  0  0  0  0  0  0  0  0  0  0
  -21.1362   14.2440  -25.3346 H   0  0  0  0  0  0  0  0  0  0  0  0
  -19.1247   15.3466  -23.3751 H   0  0  0  0  0  0  0  0  0  0  0  0
  -18.8755   14.4990  -24.9876 H   0  0  0  0  0  0  0  0  0  0  0  0
  -18.4625   17.0231  -24.9133 H   0  0  0  0  0  0  0  0  0  0  0  0
  -19.5445   16.3516  -26.2095 H   0  0  0  0  0  0  0  0  0  0  0  0
  -19.4450   22.3581  -25.4250 H   0  0  0  0  0  0  0  0  0  0  0  0
  -17.4416   23.7536  -24.9676 H   0  0  0  0  0  0  0  0  0  0  0  0
  -15.3718   23.3994  -26.2861 H   0  0  0  0  0  0  0  0  0  0  0  0
  -17.2844   20.3360  -28.4966 H   0  0  0  0  0  0  0  0  0  0  0  0
  -17.9795   17.8930  -28.8452 H   0  0  0  0  0  0  0  0  0  0  0  0
  -18.4022   15.4218  -28.9284 H   0  0  0  0  0  0  0  0  0  0  0  0
  1  2  1  0
  2  3  1  0
  2  4  1  0
  2  5  1  0
  5  6  2  0
  6  7  1  0
  7  8  2  0
  8  9  1  0
  9 10  1  0
 10 11  2  0
 10 12  1  0
 12 13  2  0
 13 14  1  0
 14 15  1  0
 15 16  2  0
  9 17  1  0
 17 18  1  0
 18 19  2  0
 18 20  1  0
 20 21  1  0
 21 22  1  0
 22 23  1  0
 23 24  1  0
 24 25  1  0
 25 26  1  0
 17 27  1  0
 27 28  2  0
 28 29  1  0
 29 30  2  0
 30 31  1  0
 31 32  2  0
  8 33  1  0
 33 34  2  0
 34  5  1  0
 16 12  1  0
 26 21  1  0
 32 27  1  0
  1 35  1  0
  1 36  1  0
  1 37  1  0
  3 38  1  0
  3 39  1  0
  3 40  1  0
  4 41  1  0
  4 42  1  0
  4 43  1  0
  6 44  1  0
  7 45  1  0
 13 46  1  0
 14 47  1  0
 15 48  1  0
 17 49  1  0
 20 50  1  0
 21 51  1  0
 22 52  1  0
 22 53  1  0
 23 54  1  0
 23 55  1  0
 24 56  1  0
 24 57  1  0
 25 58  1  0
 25 59  1  0
 26 60  1  0
 26 61  1  0
 28 62  1  0
 29 63  1  0
 30 64  1  0
 32 65  1  0
 33 66  1  0
 34 67  1  0
M  END
>  <meeko>  (6) 
{"free_energy": -8.973, "intermolecular_energy": -11.36, "internal_energy": -3.251}

$$$$

     RDKit          3D

 67 70  0  0  0  0  0  0  0  0999 V2000
  -22.0990   16.2170  -31.1780 C   0  0  0  0  0  0  0  0  0  0  0  0
  -22.1780   17.5480  -30.4230 C   0  0  0  0  0  0  0  0  0  0  0  0
  -21.2550   18.5590  -31.1350 C   0  0  0  0  0  0  0  0  0  0  0  0
  -23.6020   18.0930  -30.4800 C   0  0  0  0  0  0  0  0  0  0  0  0
  -21.7730   17.2720  -28.9280 C   0  0  0  0  0  0  0  0  0  0  0  0
  -20.4410   16.9770  -28.6100 C   0  0  0  0  0  0  0  0  0  0  0  0
  -20.0750   16.7350  -27.2800 C   0  0  0  0  0  0  0  0  0  0  0  0
  -21.0450   16.8040  -26.2760 C   0  0  0  0  0  0  0  0  0  0  0  0
  -20.6220   16.5400  -24.8810 N   0  0  0  0  0  0  0  0  0  0  0  0
  -20.0750   17.5750  -23.9930 C   0  0  0  0  0  0  0  0  0  0  0  0
  -19.2060   18.2510  -24.4230 O   0  0  0  0  0  0  0  0  0  0  0  0
  -20.6000   17.7780  -22.5540 C   0  0  0  0  0  0  0  0  0  0  0  0
  -20.1270   18.6290  -21.5730 C   0  0  0  0  0  0  0  0  0  0  0  0
  -20.9000   18.4930  -20.5020 N   0  0  0  0  0  0  0  0  0  0  0  0
  -21.8300   17.5870  -20.7930 C   0  0  0  0  0  0  0  0  0  0  0  0
  -21.6470   17.1550  -22.0570 N   0  0  0  0  0  0  0  0  0  0  0  0
  -20.9180   15.2410  -24.3540 C   0  0  0  0  0  0  0  0  0  0  0  0
  -20.7240   14.2000  -25.4950 C   0  0  0  0  0  0  0  0  0  0  0  0
  -19.7610   13.4770  -25.5280 O   0  0  0  0  0  0  0  0  0  0  0  0
  -21.7950   14.1040  -26.5010 N   0  0  0  0  0  0  0  0  0  0  0  0
  -21.7630   13.1760  -27.6050 C   0  0  0  0  0  0  0  0  0  0  0  0
  -23.0780   13.3500  -28.3590 C   0  0  0  0  0  0  0  0  0  0  0  0
  -23.1260   12.4990  -29.6260 C   0  0  0  0  0  0  0  0  0  0  0  0
  -22.0050   12.8940  -30.5420 C   0  0  0  0  0  0  0  0  0  0  0  0
  -20.6440   12.8670  -29.8790 C   0  0  0  0  0  0  0  0  0  0  0  0
  -20.5760   13.5570  -28.5080 C   0  0  0  0  0  0  0  0  0  0  0  0
  -20.0300   14.6920  -23.2770 C   0  0  0  0  0  0  0  0  0  0  0  0
  -20.6110   14.0790  -22.2240 C   0  0  0  0  0  0  0  0  0  0  0  0
  -19.8120   13.5340  -21.2510 C   0  0  0  0  0  0  0  0  0  0  0  0
  -18.4380   13.6190  -21.3680 C   0  0  0  0  0  0  0  0  0  0  0  0
  -17.8790   14.2250  -22.4280 N   0  0  0  0  0  0  0  0  0  0  0  0
  -18.6670   14.7780  -23.3760 C   0  0  0  0  0  0  0  0  0  0  0  0
  -22.3630   17.0880  -26.5810 C   0  0  0  0  0  0  0  0  0  0  0  0
  -22.7310   17.3310  -27.9160 C   0  0  0  0  0  0  0  0  0  0  0  0
  -22.0498   15.3884  -30.4562 H   0  0  0  0  0  0  0  0  0  0  0  0
  -22.9918   16.1003  -31.8099 H   0  0  0  0  0  0  0  0  0  0  0  0
  -21.1987   16.2068  -31.8099 H   0  0  0  0  0  0  0  0  0  0  0  0
  -20.7130   19.1526  -30.3841 H   0  0  0  0  0  0  0  0  0  0  0  0
  -20.5337   18.0170  -31.7642 H   0  0  0  0  0  0  0  0  0  0  0  0
  -21.8603   19.2281  -31.7642 H   0  0  0  0  0  0  0  0  0  0  0  0
  -23.9804   18.2378  -29.4573 H   0  0  0  0  0  0  0  0  0  0  0  0
  -23.6051   19.0559  -31.0119 H   0  0  0  0  0  0  0  0  0  0  0  0
  -24.2471   17.3782  -31.0119 H   0  0  0  0  0  0  0  0  0  0  0  0
  -19.6822   16.9354  -29.4053 H   0  0  0  0  0  0  0  0  0  0  0  0
  -19.0322   16.4925  -27.0275 H   0  0  0  0  0  0  0  0  0  0  0  0
  -19.2613   19.3016  -21.6637 H   0  0  0  0  0  0  0  0  0  0  0  0
  -20.7983   18.9967  -19.6093 H   0  0  0  0  0  0  0  0  0  0  0  0
  -22.6222   17.2449  -20.1108 H   0  0  0  0  0  0  0  0  0  0  0  0
  -21.9259   15.3808  -23.9361 H   0  0  0  0  0  0  0  0  0  0  0  0
  -22.4720   14.6280  -26.4270 H   0  0  0  0  0  0  0  0  0  0  0  0
  -21.6457   12.1325  -27.2774 H   0  0  0  0  0  0  0  0  0  0  0  0
  -23.9074   13.0536  -27.7001 H   0  0  0  0  0  0  0  0  0  0  0  0
  -23.1637   14.4060  -28.6547 H   0  0  0  0  0  0  0  0  0  0  0  0
  -23.0224   11.4373  -29.3577 H   0  0  0  0  0  0  0  0  0  0  0  0
  -24.0874   12.6584  -30.1363 H   0  0  0  0  0  0  0  0  0  0  0  0
  -21.9907   12.1988  -31.3944 H   0  0  0  0  0  0  0  0  0  0  0  0
  -22.1924   13.9324  -30.8530 H   0  0  0  0  0  0  0  0  0  0  0  0
  -20.3496   11.8154  -29.7468 H   0  0  0  0  0  0  0  0  0  0  0  0
  -19.9686   13.4297  -30.5403 H   0  0  0  0  0  0  0  0  0  0  0  0
  -19.6417   13.2609  -28.0085 H   0  0  0  0  0  0  0  0  0  0  0  0
  -20.6142   14.6436  -28.6749 H   0  0  0  0  0  0  0  0  0  0  0  0
  -21.7066   14.0175  -22.1474 H   0  0  0  0  0  0  0  0  0  0  0  0
  -20.2629   13.0320  -20.3823 H   0  0  0  0  0  0  0  0  0  0  0  0
  -17.7964   13.1865  -20.5861 H   0  0  0  0  0  0  0  0  0  0  0  0
  -18.2117   15.2995  -24.2309 H   0  0  0  0  0  0  0  0  0  0  0  0
  -23.1198   17.1237  -25.7835 H   0  0  0  0  0  0  0  0  0  0  0  0
  -23.7764   17.5681  -28.1628 H   0  0  0  0  0  0  0  0  0  0  0  0
  1  2  1  0
  2  3  1  0
  2  4  1  0
  2  5  1  0
  5  6  2  0
  6  7  1  0
  7  8  2  0
  8  9  1  0
  9 10  1  0
 10 11  2  0
 10 12  1  0
 12 13  2  0
 13 14  1  0
 14 15  1  0
 15 16  2  0
  9 17  1  0
 17 18  1  0
 18 19  2  0
 18 20  1  0
 20 21  1  0
 21 22  1  0
 22 23  1  0
 23 24  1  0
 24 25  1  0
 25 26  1  0
 17 27  1  0
 27 28  2  0
 28 29  1  0
 29 30  2  0
 30 31  1  0
 31 32  2  0
  8 33  1  0
 33 34  2  0
 34  5  1  0
 16 12  1  0
 26 21  1  0
 32 27  1  0
  1 35  1  0
  1 36  1  0
  1 37  1  0
  3 38  1  0
  3 39  1  0
  3 40  1  0
  4 41  1  0
  4 42  1  0
  4 43  1  0
  6 44  1  0
  7 45  1  0
 13 46  1  0
 14 47  1  0
 15 48  1  0
 17 49  1  0
 20 50  1  0
 21 51  1  0
 22 52  1  0
 22 53  1  0
 23 54  1  0
 23 55  1  0
 24 56  1  0
 24 57  1  0
 25 58  1  0
 25 59  1  0
 26 60  1  0
 26 61  1  0
 28 62  1  0
 29 63  1  0
 30 64  1  0
 32 65  1  0
 33 66  1  0
 34 67  1  0
M  END
>  <meeko>  (7) 
{"free_energy": -8.399, "intermolecular_energy": -10.785, "internal_energy": -3.232}

$$$$

     RDKit          3D

 67 70  0  0  0  0  0  0  0  0999 V2000
  -20.8660   13.8380  -29.0930 C   0  0  0  0  0  0  0  0  0  0  0  0
  -19.6800   14.0960  -28.1570 C   0  0  0  0  0  0  0  0  0  0  0  0
  -19.8820   13.2490  -26.8830 C   0  0  0  0  0  0  0  0  0  0  0  0
  -18.3850   13.6390  -28.8220 C   0  0  0  0  0  0  0  0  0  0  0  0
  -19.6210   15.6440  -27.8800 C   0  0  0  0  0  0  0  0  0  0  0  0
  -20.1260   16.1570  -26.6800 C   0  0  0  0  0  0  0  0  0  0  0  0
  -20.0710   17.5340  -26.4270 C   0  0  0  0  0  0  0  0  0  0  0  0
  -19.4960   18.3840  -27.3760 C   0  0  0  0  0  0  0  0  0  0  0  0
  -19.4560   19.8340  -27.0750 N   0  0  0  0  0  0  0  0  0  0  0  0
  -20.4120   20.5000  -26.1800 C   0  0  0  0  0  0  0  0  0  0  0  0
  -21.2840   21.1180  -26.6840 O   0  0  0  0  0  0  0  0  0  0  0  0
  -20.2900   20.4090  -24.6410 C   0  0  0  0  0  0  0  0  0  0  0  0
  -20.8490   21.2310  -23.6810 C   0  0  0  0  0  0  0  0  0  0  0  0
  -20.5040   20.7620  -22.4870 N   0  0  0  0  0  0  0  0  0  0  0  0
  -19.7530   19.6810  -22.6850 C   0  0  0  0  0  0  0  0  0  0  0  0
  -19.6300   19.4630  -24.0090 N   0  0  0  0  0  0  0  0  0  0  0  0
  -18.3280   20.5640  -27.5730 C   0  0  0  0  0  0  0  0  0  0  0  0
  -18.8160   21.4780  -28.7350 C   0  0  0  0  0  0  0  0  0  0  0  0
  -18.0690   22.2430  -29.2890 O   0  0  0  0  0  0  0  0  0  0  0  0
  -20.2180   21.3260  -29.1600 N   0  0  0  0  0  0  0  0  0  0  0  0
  -20.8070   22.0910  -30.2320 C   0  0  0  0  0  0  0  0  0  0  0  0
  -20.2810   21.4920  -31.5330 C   0  0  0  0  0  0  0  0  0  0  0  0
  -20.9180   22.1430  -32.7590 C   0  0  0  0  0  0  0  0  0  0  0  0
  -22.4050   21.9430  -32.7200 C   0  0  0  0  0  0  0  0  0  0  0  0
  -23.0430   22.4010  -31.4250 C   0  0  0  0  0  0  0  0  0  0  0  0
  -22.3350   21.9220  -30.1480 C   0  0  0  0  0  0  0  0  0  0  0  0
  -17.6620   21.5510  -26.6600 C   0  0  0  0  0  0  0  0  0  0  0  0
  -16.3780   21.3250  -26.3090 C   0  0  0  0  0  0  0  0  0  0  0  0
  -15.7400   22.2400  -25.5090 C   0  0  0  0  0  0  0  0  0  0  0  0
  -16.4170   23.3670  -25.0850 C   0  0  0  0  0  0  0  0  0  0  0  0
  -17.6910   23.5770  -25.4530 N   0  0  0  0  0  0  0  0  0  0  0  0
  -18.3240   22.6660  -26.2250 C   0  0  0  0  0  0  0  0  0  0  0  0
  -19.0000   17.8880  -28.5660 C   0  0  0  0  0  0  0  0  0  0  0  0
  -19.0550   16.5050  -28.8200 C   0  0  0  0  0  0  0  0  0  0  0  0
  -21.7686   13.6417  -28.4957 H   0  0  0  0  0  0  0  0  0  0  0  0
  -21.0312   14.7212  -29.7275 H   0  0  0  0  0  0  0  0  0  0  0  0
  -20.6494   12.9660  -29.7275 H   0  0  0  0  0  0  0  0  0  0  0  0
  -19.7314   13.8806  -25.9951 H   0  0  0  0  0  0  0  0  0  0  0  0
  -20.9030   12.8397  -26.8729 H   0  0  0  0  0  0  0  0  0  0  0  0
  -19.1557   12.4230  -26.8729 H   0  0  0  0  0  0  0  0  0  0  0  0
  -17.6476   13.3788  -28.0484 H   0  0  0  0  0  0  0  0  0  0  0  0
  -18.5858   12.7574  -29.4485 H   0  0  0  0  0  0  0  0  0  0  0  0
  -17.9880   14.4513  -29.4485 H   0  0  0  0  0  0  0  0  0  0  0  0
  -20.5666   15.4785  -25.9346 H   0  0  0  0  0  0  0  0  0  0  0  0
  -20.4768   17.9425  -25.4898 H   0  0  0  0  0  0  0  0  0  0  0  0
  -21.4707   22.1181  -23.8721 H   0  0  0  0  0  0  0  0  0  0  0  0
  -20.7690   21.1615  -21.5754 H   0  0  0  0  0  0  0  0  0  0  0  0
  -19.3039   19.0634  -21.8932 H   0  0  0  0  0  0  0  0  0  0  0  0
  -17.6113   19.7615  -27.8018 H   0  0  0  0  0  0  0  0  0  0  0  0
  -20.7100   20.7550  -28.7470 H   0  0  0  0  0  0  0  0  0  0  0  0
  -20.5588   23.1611  -30.1750 H   0  0  0  0  0  0  0  0  0  0  0  0
  -19.1919   21.6397  -31.5776 H   0  0  0  0  0  0  0  0  0  0  0  0
  -20.5372   20.4223  -31.5436 H   0  0  0  0  0  0  0  0  0  0  0  0
  -20.6934   23.2198  -32.7599 H   0  0  0  0  0  0  0  0  0  0  0  0
  -20.5111   21.6811  -33.6707 H   0  0  0  0  0  0  0  0  0  0  0  0
  -22.8543   22.5097  -33.5488 H   0  0  0  0  0  0  0  0  0  0  0  0
  -22.5881   20.8618  -32.8059 H   0  0  0  0  0  0  0  0  0  0  0  0
  -23.0510   23.5010  -31.4187 H   0  0  0  0  0  0  0  0  0  0  0  0
  -24.0492   21.9571  -31.4039 H   0  0  0  0  0  0  0  0  0  0  0  0
  -22.7097   22.5064  -29.2947 H   0  0  0  0  0  0  0  0  0  0  0  0
  -22.5500   20.8503  -30.0244 H   0  0  0  0  0  0  0  0  0  0  0  0
  -15.8526   20.4238  -26.6579 H   0  0  0  0  0  0  0  0  0  0  0  0
  -14.6949   22.0766  -25.2071 H   0  0  0  0  0  0  0  0  0  0  0  0
  -15.9080   24.0986  -24.4403 H   0  0  0  0  0  0  0  0  0  0  0  0
  -19.3763   22.8220  -26.5047 H   0  0  0  0  0  0  0  0  0  0  0  0
  -18.5645   18.5703  -29.3109 H   0  0  0  0  0  0  0  0  0  0  0  0
  -18.6512   16.1026  -29.7608 H   0  0  0  0  0  0  0  0  0  0  0  0
  1  2  1  0
  2  3  1  0
  2  4  1  0
  2  5  1  0
  5  6  2  0
  6  7  1  0
  7  8  2  0
  8  9  1  0
  9 10  1  0
 10 11  2  0
 10 12  1  0
 12 13  2  0
 13 14  1  0
 14 15  1  0
 15 16  2  0
  9 17  1  0
 17 18  1  0
 18 19  2  0
 18 20  1  0
 20 21  1  0
 21 22  1  0
 22 23  1  0
 23 24  1  0
 24 25  1  0
 25 26  1  0
 17 27  1  0
 27 28  2  0
 28 29  1  0
 29 30  2  0
 30 31  1  0
 31 32  2  0
  8 33  1  0
 33 34  2  0
 34  5  1  0
 16 12  1  0
 26 21  1  0
 32 27  1  0
  1 35  1  0
  1 36  1  0
  1 37  1  0
  3 38  1  0
  3 39  1  0
  3 40  1  0
  4 41  1  0
  4 42  1  0
  4 43  1  0
  6 44  1  0
  7 45  1  0
 13 46  1  0
 14 47  1  0
 15 48  1  0
 17 49  1  0
 20 50  1  0
 21 51  1  0
 22 52  1  0
 22 53  1  0
 23 54  1  0
 23 55  1  0
 24 56  1  0
 24 57  1  0
 25 58  1  0
 25 59  1  0
 26 60  1  0
 26 61  1  0
 28 62  1  0
 29 63  1  0
 30 64  1  0
 32 65  1  0
 33 66  1  0
 34 67  1  0
M  END
>  <meeko>  (8) 
{"free_energy": -8.284, "intermolecular_energy": -10.671, "internal_energy": -3.268}

$$$$

     RDKit          3D

 67 70  0  0  0  0  0  0  0  0999 V2000
  -20.5040   15.5880  -21.1050 C   0  0  0  0  0  0  0  0  0  0  0  0
  -21.6310   15.0060  -21.9630 C   0  0  0  0  0  0  0  0  0  0  0  0
  -21.9090   13.5670  -21.4780 C   0  0  0  0  0  0  0  0  0  0  0  0
  -22.9070   15.8200  -21.7670 C   0  0  0  0  0  0  0  0  0  0  0  0
  -21.1740   15.0850  -23.4670 C   0  0  0  0  0  0  0  0  0  0  0  0
  -19.8120   15.0170  -23.7850 C   0  0  0  0  0  0  0  0  0  0  0  0
  -19.4010   15.0830  -25.1230 C   0  0  0  0  0  0  0  0  0  0  0  0
  -20.3610   15.2020  -26.1320 C   0  0  0  0  0  0  0  0  0  0  0  0
  -19.8880   15.2710  -27.5350 N   0  0  0  0  0  0  0  0  0  0  0  0
  -19.8190   14.1030  -28.4220 C   0  0  0  0  0  0  0  0  0  0  0  0
  -18.7480   13.7680  -28.7920 O   0  0  0  0  0  0  0  0  0  0  0  0
  -21.0870   13.3370  -28.8650 C   0  0  0  0  0  0  0  0  0  0  0  0
  -21.2530   12.4940  -29.9470 C   0  0  0  0  0  0  0  0  0  0  0  0
  -22.4990   12.0350  -29.9250 N   0  0  0  0  0  0  0  0  0  0  0  0
  -23.1020   12.5700  -28.8670 C   0  0  0  0  0  0  0  0  0  0  0  0
  -22.2300   13.3640  -28.2130 N   0  0  0  0  0  0  0  0  0  0  0  0
  -19.6430   16.5790  -28.0680 C   0  0  0  0  0  0  0  0  0  0  0  0
  -20.7090   16.8610  -29.1680 C   0  0  0  0  0  0  0  0  0  0  0  0
  -20.5010   17.6460  -30.0570 O   0  0  0  0  0  0  0  0  0  0  0  0
  -21.9600   16.0870  -29.1000 N   0  0  0  0  0  0  0  0  0  0  0  0
  -23.0300   16.2270  -30.0570 C   0  0  0  0  0  0  0  0  0  0  0  0
  -23.4170   17.7030  -30.0640 C   0  0  0  0  0  0  0  0  0  0  0  0
  -24.4730   18.0110  -31.1240 C   0  0  0  0  0  0  0  0  0  0  0  0
  -23.9390   17.6600  -32.4830 C   0  0  0  0  0  0  0  0  0  0  0  0
  -23.4180   16.2420  -32.5800 C   0  0  0  0  0  0  0  0  0  0  0  0
  -22.4860   15.8120  -31.4360 C   0  0  0  0  0  0  0  0  0  0  0  0
  -19.8150   17.7590  -27.1590 C   0  0  0  0  0  0  0  0  0  0  0  0
  -20.9980   18.4070  -27.1750 C   0  0  0  0  0  0  0  0  0  0  0  0
  -21.1880   19.4630  -26.3190 C   0  0  0  0  0  0  0  0  0  0  0  0
  -20.1710   19.8390  -25.4610 C   0  0  0  0  0  0  0  0  0  0  0  0
  -19.0040   19.1750  -25.4540 N   0  0  0  0  0  0  0  0  0  0  0  0
  -18.8130   18.1470  -26.3110 C   0  0  0  0  0  0  0  0  0  0  0  0
  -21.7060   15.2760  -25.8270 C   0  0  0  0  0  0  0  0  0  0  0  0
  -22.1190   15.2100  -24.4840 C   0  0  0  0  0  0  0  0  0  0  0  0
  -20.7504   15.4607  -20.0405 H   0  0  0  0  0  0  0  0  0  0  0  0
  -19.5639   15.0626  -21.3291 H   0  0  0  0  0  0  0  0  0  0  0  0
  -20.3881   16.6587  -21.3291 H   0  0  0  0  0  0  0  0  0  0  0  0
  -21.9132   13.5451  -20.3782 H   0  0  0  0  0  0  0  0  0  0  0  0
  -22.8878   13.2356  -21.8551 H   0  0  0  0  0  0  0  0  0  0  0  0
  -21.1241   12.8949  -21.8551 H   0  0  0  0  0  0  0  0  0  0  0  0
  -23.1013   15.9439  -20.6914 H   0  0  0  0  0  0  0  0  0  0  0  0
  -22.7867   16.8086  -22.2342 H   0  0  0  0  0  0  0  0  0  0  0  0
  -23.7527   15.2942  -22.2342 H   0  0  0  0  0  0  0  0  0  0  0  0
  -19.0648   14.9118  -22.9846 H   0  0  0  0  0  0  0  0  0  0  0  0
  -18.3316   15.0415  -25.3772 H   0  0  0  0  0  0  0  0  0  0  0  0
  -20.4866   12.2462  -30.6962 H   0  0  0  0  0  0  0  0  0  0  0  0
  -22.9209   11.3842  -30.6028 H   0  0  0  0  0  0  0  0  0  0  0  0
  -24.1468   12.3928  -28.5721 H   0  0  0  0  0  0  0  0  0  0  0  0
  -18.5854   16.5184  -28.3643 H   0  0  0  0  0  0  0  0  0  0  0  0
  -22.0570   15.5240  -28.4570 H   0  0  0  0  0  0  0  0  0  0  0  0
  -23.9028   15.6041  -29.8114 H   0  0  0  0  0  0  0  0  0  0  0  0
  -23.8177   17.9701  -29.0750 H   0  0  0  0  0  0  0  0  0  0  0  0
  -22.5169   18.2899  -30.2995 H   0  0  0  0  0  0  0  0  0  0  0  0
  -25.3780   17.4192  -30.9221 H   0  0  0  0  0  0  0  0  0  0  0  0
  -24.7197   19.0825  -31.0937 H   0  0  0  0  0  0  0  0  0  0  0  0
  -24.7481   17.7845  -33.2177 H   0  0  0  0  0  0  0  0  0  0  0  0
  -23.0896   18.3307  -32.6797 H   0  0  0  0  0  0  0  0  0  0  0  0
  -24.2819   15.5612  -32.5904 H   0  0  0  0  0  0  0  0  0  0  0  0
  -22.8159   16.1983  -33.4996 H   0  0  0  0  0  0  0  0  0  0  0  0
  -22.3775   14.7176  -31.4595 H   0  0  0  0  0  0  0  0  0  0  0  0
  -21.5177   16.3130  -31.5823 H   0  0  0  0  0  0  0  0  0  0  0  0
  -21.7974   18.0942  -27.8628 H   0  0  0  0  0  0  0  0  0  0  0  0
  -22.1440   20.0071  -26.3156 H   0  0  0  0  0  0  0  0  0  0  0  0
  -20.3192   20.6890  -24.7786 H   0  0  0  0  0  0  0  0  0  0  0  0
  -17.8477   17.6198  -26.3269 H   0  0  0  0  0  0  0  0  0  0  0  0
  -22.4500   15.3859  -26.6297 H   0  0  0  0  0  0  0  0  0  0  0  0
  -23.1896   15.2571  -24.2359 H   0  0  0  0  0  0  0  0  0  0  0  0
  1  2  1  0
  2  3  1  0
  2  4  1  0
  2  5  1  0
  5  6  2  0
  6  7  1  0
  7  8  2  0
  8  9  1  0
  9 10  1  0
 10 11  2  0
 10 12  1  0
 12 13  2  0
 13 14  1  0
 14 15  1  0
 15 16  2  0
  9 17  1  0
 17 18  1  0
 18 19  2  0
 18 20  1  0
 20 21  1  0
 21 22  1  0
 22 23  1  0
 23 24  1  0
 24 25  1  0
 25 26  1  0
 17 27  1  0
 27 28  2  0
 28 29  1  0
 29 30  2  0
 30 31  1  0
 31 32  2  0
  8 33  1  0
 33 34  2  0
 34  5  1  0
 16 12  1  0
 26 21  1  0
 32 27  1  0
  1 35  1  0
  1 36  1  0
  1 37  1  0
  3 38  1  0
  3 39  1  0
  3 40  1  0
  4 41  1  0
  4 42  1  0
  4 43  1  0
  6 44  1  0
  7 45  1  0
 13 46  1  0
 14 47  1  0
 15 48  1  0
 17 49  1  0
 20 50  1  0
 21 51  1  0
 22 52  1  0
 22 53  1  0
 23 54  1  0
 23 55  1  0
 24 56  1  0
 24 57  1  0
 25 58  1  0
 25 59  1  0
 26 60  1  0
 26 61  1  0
 28 62  1  0
 29 63  1  0
 30 64  1  0
 32 65  1  0
 33 66  1  0
 34 67  1  0
M  END
>  <meeko>  (9) 
{"free_energy": -7.642, "intermolecular_energy": -10.028, "internal_energy": -3.95}

$$$$

