
     RDKit          3D

 67 70  0  0  0  0  0  0  0  0999 V2000
  -18.4210   22.2290  -25.9500 C   0  0  0  0  0  0  0  0  0  0  0  0
  -17.8180   21.2490  -26.9610 C   0  0  0  0  0  0  0  0  0  0  0  0
  -17.7930   21.9390  -28.3420 C   0  0  0  0  0  0  0  0  0  0  0  0
  -16.3780   20.9250  -26.5740 C   0  0  0  0  0  0  0  0  0  0  0  0
  -18.6870   19.9380  -26.9290 C   0  0  0  0  0  0  0  0  0  0  0  0
  -19.0540   19.3750  -25.7000 C   0  0  0  0  0  0  0  0  0  0  0  0
  -19.8310   18.2100  -25.6660 C   0  0  0  0  0  0  0  0  0  0  0  0
  -20.2470   17.6270  -26.8660 C   0  0  0  0  0  0  0  0  0  0  0  0
  -21.0660   16.3940  -26.7920 N   0  0  0  0  0  0  0  0  0  0  0  0
  -22.4220   16.3580  -26.2280 C   0  0  0  0  0  0  0  0  0  0  0  0
  -23.2820   15.9290  -26.9160 O   0  0  0  0  0  0  0  0  0  0  0  0
  -22.7260   16.8620  -24.7980 C   0  0  0  0  0  0  0  0  0  0  0  0
  -23.1900   18.1010  -24.4000 C   0  0  0  0  0  0  0  0  0  0  0  0
  -23.3350   18.0810  -23.0800 N   0  0  0  0  0  0  0  0  0  0  0  0
  -22.9750   16.8720  -22.6570 C   0  0  0  0  0  0  0  0  0  0  0  0
  -22.6090   16.1230  -23.7160 N   0  0  0  0  0  0  0  0  0  0  0  0
  -20.5440   15.2340  -27.4500 C   0  0  0  0  0  0  0  0  0  0  0  0
  -20.0540   14.2370  -26.3590 C   0  0  0  0  0  0  0  0  0  0  0  0
  -19.3780   13.2800  -26.6400 O   0  0  0  0  0  0  0  0  0  0  0  0
  -20.4130   14.5450  -24.9640 N   0  0  0  0  0  0  0  0  0  0  0  0
  -20.0160   13.7240  -23.8460 C   0  0  0  0  0  0  0  0  0  0  0  0
  -18.7300   14.3320  -23.2940 C   0  0  0  0  0  0  0  0  0  0  0  0
  -18.2590   13.6190  -22.0280 C   0  0  0  0  0  0  0  0  0  0  0  0
  -19.3180   13.7220  -20.9690 C   0  0  0  0  0  0  0  0  0  0  0  0
  -20.6810   13.2460  -21.4270 C   0  0  0  0  0  0  0  0  0  0  0  0
  -21.1340   13.7930  -22.7900 C   0  0  0  0  0  0  0  0  0  0  0  0
  -21.4890   14.3840  -28.2470 C   0  0  0  0  0  0  0  0  0  0  0  0
  -21.7090   14.7150  -29.5360 C   0  0  0  0  0  0  0  0  0  0  0  0
  -22.5380   13.9240  -30.2920 C   0  0  0  0  0  0  0  0  0  0  0  0
  -23.1240   12.8090  -29.7230 C   0  0  0  0  0  0  0  0  0  0  0  0
  -22.8850   12.4920  -28.4400 N   0  0  0  0  0  0  0  0  0  0  0  0
  -22.0830   13.2830  -27.6930 C   0  0  0  0  0  0  0  0  0  0  0  0
  -19.8850   18.1710  -28.0840 C   0  0  0  0  0  0  0  0  0  0  0  0
  -19.1040   19.3400  -28.1170 C   0  0  0  0  0  0  0  0  0  0  0  0
  -18.2066   21.8806  -24.9289 H   0  0  0  0  0  0  0  0  0  0  0  0
  -17.9798   23.2258  -26.0975 H   0  0  0  0  0  0  0  0  0  0  0  0
  -19.5097   22.2844  -26.0975 H   0  0  0  0  0  0  0  0  0  0  0  0
  -17.7535   23.0299  -28.2062 H   0  0  0  0  0  0  0  0  0  0  0  0
  -16.9063   21.6068  -28.9018 H   0  0  0  0  0  0  0  0  0  0  0  0
  -18.7014   21.6719  -28.9018 H   0  0  0  0  0  0  0  0  0  0  0  0
  -16.2886   20.9049  -25.4778 H   0  0  0  0  0  0  0  0  0  0  0  0
  -16.1008   19.9420  -26.9826 H   0  0  0  0  0  0  0  0  0  0  0  0
  -15.7065   21.6945  -26.9826 H   0  0  0  0  0  0  0  0  0  0  0  0
  -18.7317   19.8482  -24.7607 H   0  0  0  0  0  0  0  0  0  0  0  0
  -20.1113   17.7580  -24.7031 H   0  0  0  0  0  0  0  0  0  0  0  0
  -23.4022   18.9545  -25.0607 H   0  0  0  0  0  0  0  0  0  0  0  0
  -23.6656   18.8590  -22.4915 H   0  0  0  0  0  0  0  0  0  0  0  0
  -22.9759   16.5369  -21.6093 H   0  0  0  0  0  0  0  0  0  0  0  0
  -19.8019   15.6674  -28.1366 H   0  0  0  0  0  0  0  0  0  0  0  0
  -20.8820   15.2480  -24.8090 H   0  0  0  0  0  0  0  0  0  0  0  0
  -19.8515   12.6738  -24.1290 H   0  0  0  0  0  0  0  0  0  0  0  0
  -17.9434   14.2546  -24.0590 H   0  0  0  0  0  0  0  0  0  0  0  0
  -18.9328   15.3823  -23.0376 H   0  0  0  0  0  0  0  0  0  0  0  0
  -18.0688   12.5594  -22.2538 H   0  0  0  0  0  0  0  0  0  0  0  0
  -17.3332   14.0901  -21.6661 H   0  0  0  0  0  0  0  0  0  0  0  0
  -19.0084   13.1129  -20.1070 H   0  0  0  0  0  0  0  0  0  0  0  0
  -19.4170   14.7874  -20.7140 H   0  0  0  0  0  0  0  0  0  0  0  0
  -20.6557   12.1481  -21.4909 H   0  0  0  0  0  0  0  0  0  0  0  0
  -21.4034   13.6231  -20.6881 H   0  0  0  0  0  0  0  0  0  0  0  0
  -21.9910   13.2002  -23.1424 H   0  0  0  0  0  0  0  0  0  0  0  0
  -21.4062   14.8503  -22.6556 H   0  0  0  0  0  0  0  0  0  0  0  0
  -21.2320   15.6041  -29.9741 H   0  0  0  0  0  0  0  0  0  0  0  0
  -22.7348   14.1761  -31.3445 H   0  0  0  0  0  0  0  0  0  0  0  0
  -23.7916   12.1760  -30.3260 H   0  0  0  0  0  0  0  0  0  0  0  0
  -21.9070   13.0404  -26.6346 H   0  0  0  0  0  0  0  0  0  0  0  0
  -20.2057   17.6927  -29.0212 H   0  0  0  0  0  0  0  0  0  0  0  0
  -18.8214   19.7837  -29.0831 H   0  0  0  0  0  0  0  0  0  0  0  0
  1  2  1  0
  2  3  1  0
  2  4  1  0
  2  5  1  0
  5  6  2  0
  6  7  1  0
  7  8  2  0
  8  9  1  0
  9 10  1  0
 10 11  2  0
 10 12  1  0
 12 13  2  0
 13 14  1  0
 14 15  1  0
 15 16  2  0
  9 17  1  0
 17 18  1  0
 18 19  2  0
 18 20  1  0
 20 21  1  0
 21 22  1  0
 22 23  1  0
 23 24  1  0
 24 25  1  0
 25 26  1  0
 17 27  1  0
 27 28  2  0
 28 29  1  0
 29 30  2  0
 30 31  1  0
 31 32  2  0
  8 33  1  0
 33 34  2  0
 34  5  1  0
 16 12  1  0
 26 21  1  0
 32 27  1  0
  1 35  1  0
  1 36  1  0
  1 37  1  0
  3 38  1  0
  3 39  1  0
  3 40  1  0
  4 41  1  0
  4 42  1  0
  4 43  1  0
  6 44  1  0
  7 45  1  0
 13 46  1  0
 14 47  1  0
 15 48  1  0
 17 49  1  0
 20 50  1  0
 21 51  1  0
 22 52  1  0
 22 53  1  0
 23 54  1  0
 23 55  1  0
 24 56  1  0
 24 57  1  0
 25 58  1  0
 25 59  1  0
 26 60  1  0
 26 61  1  0
 28 62  1  0
 29 63  1  0
 30 64  1  0
 32 65  1  0
 33 66  1  0
 34 67  1  0
M  END
>  <meeko>  (1) 
{"free_energy": -9.303, "intermolecular_energy": -11.69, "internal_energy": -3.34}

$$$$

     RDKit          3D

 67 70  0  0  0  0  0  0  0  0999 V2000
  -24.0220   16.6780  -33.6070 C   0  0  0  0  0  0  0  0  0  0  0  0
  -24.5690   17.2160  -32.2810 C   0  0  0  0  0  0  0  0  0  0  0  0
  -25.0250   18.6730  -32.5060 C   0  0  0  0  0  0  0  0  0  0  0  0
  -25.7900   16.4040  -31.8560 C   0  0  0  0  0  0  0  0  0  0  0  0
  -23.4320   17.0720  -31.2040 C   0  0  0  0  0  0  0  0  0  0  0  0
  -22.2670   16.3570  -31.5110 C   0  0  0  0  0  0  0  0  0  0  0  0
  -21.2490   16.2300  -30.5570 C   0  0  0  0  0  0  0  0  0  0  0  0
  -21.4020   16.8340  -29.3050 C   0  0  0  0  0  0  0  0  0  0  0  0
  -20.3060   16.6770  -28.3210 N   0  0  0  0  0  0  0  0  0  0  0  0
  -19.4930   17.7980  -27.8310 C   0  0  0  0  0  0  0  0  0  0  0  0
  -18.5830   18.1400  -28.5030 O   0  0  0  0  0  0  0  0  0  0  0  0
  -19.8010   18.5070  -26.4920 C   0  0  0  0  0  0  0  0  0  0  0  0
  -20.9270   19.2230  -26.1330 C   0  0  0  0  0  0  0  0  0  0  0  0
  -20.7740   19.6290  -24.8780 N   0  0  0  0  0  0  0  0  0  0  0  0
  -19.5920   19.1860  -24.4560 C   0  0  0  0  0  0  0  0  0  0  0  0
  -19.0000   18.4910  -25.4480 N   0  0  0  0  0  0  0  0  0  0  0  0
  -20.1600   15.3840  -27.7210 C   0  0  0  0  0  0  0  0  0  0  0  0
  -20.4790   15.5150  -26.2030 C   0  0  0  0  0  0  0  0  0  0  0  0
  -21.4340   16.1370  -25.8130 O   0  0  0  0  0  0  0  0  0  0  0  0
  -19.5890   14.8040  -25.2690 N   0  0  0  0  0  0  0  0  0  0  0  0
  -19.7680   14.8190  -23.8380 C   0  0  0  0  0  0  0  0  0  0  0  0
  -20.6660   13.6330  -23.4990 C   0  0  0  0  0  0  0  0  0  0  0  0
  -20.8460   13.4660  -21.9910 C   0  0  0  0  0  0  0  0  0  0  0  0
  -19.5100   13.2410  -21.3460 C   0  0  0  0  0  0  0  0  0  0  0  0
  -18.4850   14.3010  -21.6920 C   0  0  0  0  0  0  0  0  0  0  0  0
  -18.3850   14.6430  -23.1870 C   0  0  0  0  0  0  0  0  0  0  0  0
  -21.1020   14.2950  -28.1430 C   0  0  0  0  0  0  0  0  0  0  0  0
  -20.7610   13.5360  -29.2050 C   0  0  0  0  0  0  0  0  0  0  0  0
  -21.5900   12.5090  -29.5790 C   0  0  0  0  0  0  0  0  0  0  0  0
  -22.7490   12.2710  -28.8650 C   0  0  0  0  0  0  0  0  0  0  0  0
  -23.0670   13.0330  -27.8050 N   0  0  0  0  0  0  0  0  0  0  0  0
  -22.2580   14.0560  -27.4500 C   0  0  0  0  0  0  0  0  0  0  0  0
  -22.5490   17.5360  -28.9900 C   0  0  0  0  0  0  0  0  0  0  0  0
  -23.5710   17.6630  -29.9490 C   0  0  0  0  0  0  0  0  0  0  0  0
  -23.2511   15.9198  -33.4050 H   0  0  0  0  0  0  0  0  0  0  0  0
  -24.8409   16.2236  -34.1841 H   0  0  0  0  0  0  0  0  0  0  0  0
  -23.5813   17.5043  -34.1841 H   0  0  0  0  0  0  0  0  0  0  0  0
  -25.1785   19.1635  -31.5335 H   0  0  0  0  0  0  0  0  0  0  0  0
  -24.2536   19.2153  -33.0725 H   0  0  0  0  0  0  0  0  0  0  0  0
  -25.9679   18.6788  -33.0725 H   0  0  0  0  0  0  0  0  0  0  0  0
  -25.8428   16.3689  -30.7578 H   0  0  0  0  0  0  0  0  0  0  0  0
  -26.7008   16.8769  -32.2520 H   0  0  0  0  0  0  0  0  0  0  0  0
  -25.7061   15.3812  -32.2520 H   0  0  0  0  0  0  0  0  0  0  0  0
  -22.1515   15.8947  -32.5024 H   0  0  0  0  0  0  0  0  0  0  0  0
  -20.3375   15.6603  -30.7906 H   0  0  0  0  0  0  0  0  0  0  0  0
  -21.7980   19.4219  -26.7747 H   0  0  0  0  0  0  0  0  0  0  0  0
  -21.4469   20.1850  -24.3312 H   0  0  0  0  0  0  0  0  0  0  0  0
  -19.1659   19.3594  -23.4568 H   0  0  0  0  0  0  0  0  0  0  0  0
  -19.1407   15.0996  -28.0211 H   0  0  0  0  0  0  0  0  0  0  0  0
  -18.9300   14.3580  -25.5940 H   0  0  0  0  0  0  0  0  0  0  0  0
  -20.2189   15.7555  -23.4779 H   0  0  0  0  0  0  0  0  0  0  0  0
  -21.6525   13.7911  -23.9593 H   0  0  0  0  0  0  0  0  0  0  0  0
  -20.1878   12.7218  -23.8877 H   0  0  0  0  0  0  0  0  0  0  0  0
  -21.3052   14.3746  -21.5744 H   0  0  0  0  0  0  0  0  0  0  0  0
  -21.4966   12.6011  -21.7945 H   0  0  0  0  0  0  0  0  0  0  0  0
  -19.6474   13.2328  -20.2546 H   0  0  0  0  0  0  0  0  0  0  0  0
  -19.1251   12.2830  -21.7256 H   0  0  0  0  0  0  0  0  0  0  0  0
  -18.7478   15.2204  -21.1483 H   0  0  0  0  0  0  0  0  0  0  0  0
  -17.5066   13.8886  -21.4044 H   0  0  0  0  0  0  0  0  0  0  0  0
  -17.8193   15.5797  -23.2988 H   0  0  0  0  0  0  0  0  0  0  0  0
  -17.8790   13.8064  -23.6911 H   0  0  0  0  0  0  0  0  0  0  0  0
  -19.8338   13.7373  -29.7616 H   0  0  0  0  0  0  0  0  0  0  0  0
  -21.3335   11.8781  -30.4428 H   0  0  0  0  0  0  0  0  0  0  0  0
  -23.4169   11.4508  -29.1670 H   0  0  0  0  0  0  0  0  0  0  0  0
  -22.5299   14.6994  -26.6003 H   0  0  0  0  0  0  0  0  0  0  0  0
  -22.6629   17.9929  -27.9959 H   0  0  0  0  0  0  0  0  0  0  0  0
  -24.4821   18.2302  -29.7077 H   0  0  0  0  0  0  0  0  0  0  0  0
  1  2  1  0
  2  3  1  0
  2  4  1  0
  2  5  1  0
  5  6  2  0
  6  7  1  0
  7  8  2  0
  8  9  1  0
  9 10  1  0
 10 11  2  0
 10 12  1  0
 12 13  2  0
 13 14  1  0
 14 15  1  0
 15 16  2  0
  9 17  1  0
 17 18  1  0
 18 19  2  0
 18 20  1  0
 20 21  1  0
 21 22  1  0
 22 23  1  0
 23 24  1  0
 24 25  1  0
 25 26  1  0
 17 27  1  0
 27 28  2  0
 28 29  1  0
 29 30  2  0
 30 31  1  0
 31 32  2  0
  8 33  1  0
 33 34  2  0
 34  5  1  0
 16 12  1  0
 26 21  1  0
 32 27  1  0
  1 35  1  0
  1 36  1  0
  1 37  1  0
  3 38  1  0
  3 39  1  0
  3 40  1  0
  4 41  1  0
  4 42  1  0
  4 43  1  0
  6 44  1  0
  7 45  1  0
 13 46  1  0
 14 47  1  0
 15 48  1  0
 17 49  1  0
 20 50  1  0
 21 51  1  0
 22 52  1  0
 22 53  1  0
 23 54  1  0
 23 55  1  0
 24 56  1  0
 24 57  1  0
 25 58  1  0
 25 59  1  0
 26 60  1  0
 26 61  1  0
 28 62  1  0
 29 63  1  0
 30 64  1  0
 32 65  1  0
 33 66  1  0
 34 67  1  0
M  END
>  <meeko>  (2) 
{"free_energy": -9.259, "intermolecular_energy": -11.645, "internal_energy": -2.68}

$$$$

     RDKit          3D

 67 70  0  0  0  0  0  0  0  0999 V2000
  -20.8740   15.6140  -21.1000 C   0  0  0  0  0  0  0  0  0  0  0  0
  -20.6310   14.2930  -21.8360 C   0  0  0  0  0  0  0  0  0  0  0  0
  -19.3120   13.6860  -21.3100 C   0  0  0  0  0  0  0  0  0  0  0  0
  -21.7560   13.3100  -21.5230 C   0  0  0  0  0  0  0  0  0  0  0  0
  -20.6090   14.6040  -23.3780 C   0  0  0  0  0  0  0  0  0  0  0  0
  -19.7730   13.8670  -24.2260 C   0  0  0  0  0  0  0  0  0  0  0  0
  -19.7540   14.1370  -25.6000 C   0  0  0  0  0  0  0  0  0  0  0  0
  -20.5840   15.1360  -26.1160 C   0  0  0  0  0  0  0  0  0  0  0  0
  -20.5350   15.3960  -27.5740 N   0  0  0  0  0  0  0  0  0  0  0  0
  -20.2920   14.3470  -28.5730 C   0  0  0  0  0  0  0  0  0  0  0  0
  -19.2460   14.3590  -29.1240 O   0  0  0  0  0  0  0  0  0  0  0  0
  -21.3510   13.2710  -28.9040 C   0  0  0  0  0  0  0  0  0  0  0  0
  -22.5030   12.9520  -28.2100 C   0  0  0  0  0  0  0  0  0  0  0  0
  -23.1270   11.9850  -28.8720 N   0  0  0  0  0  0  0  0  0  0  0  0
  -22.3960   11.7000  -29.9470 C   0  0  0  0  0  0  0  0  0  0  0  0
  -21.3090   12.4980  -29.9670 N   0  0  0  0  0  0  0  0  0  0  0  0
  -20.9030   16.7120  -28.0050 C   0  0  0  0  0  0  0  0  0  0  0  0
  -19.5970   17.5360  -28.2090 C   0  0  0  0  0  0  0  0  0  0  0  0
  -18.6280   17.0580  -28.7400 O   0  0  0  0  0  0  0  0  0  0  0  0
  -19.6200   18.9420  -27.7680 N   0  0  0  0  0  0  0  0  0  0  0  0
  -18.4930   19.8320  -27.9070 C   0  0  0  0  0  0  0  0  0  0  0  0
  -19.0510   21.1680  -28.3890 C   0  0  0  0  0  0  0  0  0  0  0  0
  -17.9680   22.2420  -28.4710 C   0  0  0  0  0  0  0  0  0  0  0  0
  -17.3620   22.4500  -27.1140 C   0  0  0  0  0  0  0  0  0  0  0  0
  -16.8610   21.1730  -26.4730 C   0  0  0  0  0  0  0  0  0  0  0  0
  -17.8460   19.9940  -26.5200 C   0  0  0  0  0  0  0  0  0  0  0  0
  -21.5750   16.8610  -29.3380 C   0  0  0  0  0  0  0  0  0  0  0  0
  -22.7010   16.1510  -29.5650 C   0  0  0  0  0  0  0  0  0  0  0  0
  -23.3520   16.3070  -30.7620 C   0  0  0  0  0  0  0  0  0  0  0  0
  -22.8500   17.1830  -31.7050 C   0  0  0  0  0  0  0  0  0  0  0  0
  -21.7330   17.8870  -31.4560 N   0  0  0  0  0  0  0  0  0  0  0  0
  -21.0820   17.7180  -30.2840 C   0  0  0  0  0  0  0  0  0  0  0  0
  -21.4080   15.8730  -25.2860 C   0  0  0  0  0  0  0  0  0  0  0  0
  -21.4270   15.6020  -23.9070 C   0  0  0  0  0  0  0  0  0  0  0  0
  -20.8420   15.4401  -20.0143 H   0  0  0  0  0  0  0  0  0  0  0  0
  -20.0939   16.3378  -21.3785 H   0  0  0  0  0  0  0  0  0  0  0  0
  -21.8606   16.0128  -21.3785 H   0  0  0  0  0  0  0  0  0  0  0  0
  -19.3197   13.6896  -20.2100 H   0  0  0  0  0  0  0  0  0  0  0  0
  -19.2139   12.6521  -21.6726 H   0  0  0  0  0  0  0  0  0  0  0  0
  -18.4629   14.2839  -21.6726 H   0  0  0  0  0  0  0  0  0  0  0  0
  -21.8661   13.2138  -20.4328 H   0  0  0  0  0  0  0  0  0  0  0  0
  -22.6973   13.6802  -21.9553 H   0  0  0  0  0  0  0  0  0  0  0  0
  -21.5154   12.3276  -21.9553 H   0  0  0  0  0  0  0  0  0  0  0  0
  -19.1308   13.0754  -23.8125 H   0  0  0  0  0  0  0  0  0  0  0  0
  -19.0911   13.5673  -26.2678 H   0  0  0  0  0  0  0  0  0  0  0  0
  -22.8432   13.4177  -27.2733 H   0  0  0  0  0  0  0  0  0  0  0  0
  -24.0146   11.5372  -28.6028 H   0  0  0  0  0  0  0  0  0  0  0  0
  -22.6396   10.9354  -30.6993 H   0  0  0  0  0  0  0  0  0  0  0  0
  -21.6081   17.0280  -27.2221 H   0  0  0  0  0  0  0  0  0  0  0  0
  -20.3390   19.2450  -27.4100 H   0  0  0  0  0  0  0  0  0  0  0  0
  -17.7396   19.4546  -28.6140 H   0  0  0  0  0  0  0  0  0  0  0  0
  -19.4911   21.0300  -29.3876 H   0  0  0  0  0  0  0  0  0  0  0  0
  -19.8081   21.5023  -27.6644 H   0  0  0  0  0  0  0  0  0  0  0  0
  -17.1867   21.9211  -29.1756 H   0  0  0  0  0  0  0  0  0  0  0  0
  -18.4140   23.1848  -28.8205 H   0  0  0  0  0  0  0  0  0  0  0  0
  -16.5150   23.1447  -27.2139 H   0  0  0  0  0  0  0  0  0  0  0  0
  -18.1547   22.8485  -26.4638 H   0  0  0  0  0  0  0  0  0  0  0  0
  -15.9398   20.8692  -26.9917 H   0  0  0  0  0  0  0  0  0  0  0  0
  -16.7065   21.4029  -25.4084 H   0  0  0  0  0  0  0  0  0  0  0  0
  -17.3041   19.0695  -26.2717 H   0  0  0  0  0  0  0  0  0  0  0  0
  -18.6481   20.1949  -25.7946 H   0  0  0  0  0  0  0  0  0  0  0  0
  -23.0894   15.4594  -28.8029 H   0  0  0  0  0  0  0  0  0  0  0  0
  -24.2696   15.7373  -30.9703 H   0  0  0  0  0  0  0  0  0  0  0  0
  -23.3688   17.3051  -32.6672 H   0  0  0  0  0  0  0  0  0  0  0  0
  -20.1517   18.2718  -30.0896 H   0  0  0  0  0  0  0  0  0  0  0  0
  -22.0452   16.6671  -25.7025 H   0  0  0  0  0  0  0  0  0  0  0  0
  -22.0885   16.1783  -23.2435 H   0  0  0  0  0  0  0  0  0  0  0  0
  1  2  1  0
  2  3  1  0
  2  4  1  0
  2  5  1  0
  5  6  2  0
  6  7  1  0
  7  8  2  0
  8  9  1  0
  9 10  1  0
 10 11  2  0
 10 12  1  0
 12 13  2  0
 13 14  1  0
 14 15  1  0
 15 16  2  0
  9 17  1  0
 17 18  1  0
 18 19  2  0
 18 20  1  0
 20 21  1  0
 21 22  1  0
 22 23  1  0
 23 24  1  0
 24 25  1  0
 25 26  1  0
 17 27  1  0
 27 28  2  0
 28 29  1  0
 29 30  2  0
 30 31  1  0
 31 32  2  0
  8 33  1  0
 33 34  2  0
 34  5  1  0
 16 12  1  0
 26 21  1  0
 32 27  1  0
  1 35  1  0
  1 36  1  0
  1 37  1  0
  3 38  1  0
  3 39  1  0
  3 40  1  0
  4 41  1  0
  4 42  1  0
  4 43  1  0
  6 44  1  0
  7 45  1  0
 13 46  1  0
 14 47  1  0
 15 48  1  0
 17 49  1  0
 20 50  1  0
 21 51  1  0
 22 52  1  0
 22 53  1  0
 23 54  1  0
 23 55  1  0
 24 56  1  0
 24 57  1  0
 25 58  1  0
 25 59  1  0
 26 60  1  0
 26 61  1  0
 28 62  1  0
 29 63  1  0
 30 64  1  0
 32 65  1  0
 33 66  1  0
 34 67  1  0
M  END
>  <meeko>  (3) 
{"free_energy": -9.225, "intermolecular_energy": -11.611, "internal_energy": -2.463}

$$$$

     RDKit          3D

 67 70  0  0  0  0  0  0  0  0999 V2000
  -16.3780   20.7660  -26.9380 C   0  0  0  0  0  0  0  0  0  0  0  0
  -17.8590   21.1590  -26.9260 C   0  0  0  0  0  0  0  0  0  0  0  0
  -18.1030   22.0680  -25.7020 C   0  0  0  0  0  0  0  0  0  0  0  0
  -18.1920   21.9640  -28.1790 C   0  0  0  0  0  0  0  0  0  0  0  0
  -18.7040   19.8330  -26.9030 C   0  0  0  0  0  0  0  0  0  0  0  0
  -19.2820   19.3960  -25.7050 C   0  0  0  0  0  0  0  0  0  0  0  0
  -20.0390   18.2170  -25.6800 C   0  0  0  0  0  0  0  0  0  0  0  0
  -20.2220   17.4930  -26.8620 C   0  0  0  0  0  0  0  0  0  0  0  0
  -21.0280   16.2510  -26.7980 N   0  0  0  0  0  0  0  0  0  0  0  0
  -22.4000   16.2040  -26.2790 C   0  0  0  0  0  0  0  0  0  0  0  0
  -22.7280   15.2230  -25.7070 O   0  0  0  0  0  0  0  0  0  0  0  0
  -23.3870   17.3800  -26.4680 C   0  0  0  0  0  0  0  0  0  0  0  0
  -23.5730   18.1800  -27.5790 C   0  0  0  0  0  0  0  0  0  0  0  0
  -24.5440   19.0430  -27.3060 N   0  0  0  0  0  0  0  0  0  0  0  0
  -24.9570   18.8000  -26.0650 C   0  0  0  0  0  0  0  0  0  0  0  0
  -24.2490   17.7720  -25.5550 N   0  0  0  0  0  0  0  0  0  0  0  0
  -20.4690   15.0900  -27.4250 C   0  0  0  0  0  0  0  0  0  0  0  0
  -20.0130   14.1080  -26.3050 C   0  0  0  0  0  0  0  0  0  0  0  0
  -19.3910   13.1080  -26.5610 O   0  0  0  0  0  0  0  0  0  0  0  0
  -20.3310   14.4840  -24.9170 N   0  0  0  0  0  0  0  0  0  0  0  0
  -19.9580   13.6840  -23.7760 C   0  0  0  0  0  0  0  0  0  0  0  0
  -18.6890   14.3070  -23.2030 C   0  0  0  0  0  0  0  0  0  0  0  0
  -18.2460   13.6180  -21.9140 C   0  0  0  0  0  0  0  0  0  0  0  0
  -19.3310   13.7330  -20.8830 C   0  0  0  0  0  0  0  0  0  0  0  0
  -20.6800   13.2430  -21.3670 C   0  0  0  0  0  0  0  0  0  0  0  0
  -21.1020   13.7650  -22.7500 C   0  0  0  0  0  0  0  0  0  0  0  0
  -21.3740   14.2230  -28.2490 C   0  0  0  0  0  0  0  0  0  0  0  0
  -21.3930   14.4130  -29.5850 C   0  0  0  0  0  0  0  0  0  0  0  0
  -22.1830   13.6010  -30.3590 C   0  0  0  0  0  0  0  0  0  0  0  0
  -22.9360   12.6080  -29.7600 C   0  0  0  0  0  0  0  0  0  0  0  0
  -22.8960   12.4290  -28.4300 N   0  0  0  0  0  0  0  0  0  0  0  0
  -22.1320   13.2430  -27.6670 C   0  0  0  0  0  0  0  0  0  0  0  0
  -19.6510   17.9140  -28.0480 C   0  0  0  0  0  0  0  0  0  0  0  0
  -18.8910   19.0970  -28.0720 C   0  0  0  0  0  0  0  0  0  0  0  0
  -16.0158   20.6699  -25.9038 H   0  0  0  0  0  0  0  0  0  0  0  0
  -16.2579   19.8049  -27.4594 H   0  0  0  0  0  0  0  0  0  0  0  0
  -15.7972   21.5411  -27.4594 H   0  0  0  0  0  0  0  0  0  0  0  0
  -17.9478   21.4898  -24.7792 H   0  0  0  0  0  0  0  0  0  0  0  0
  -17.4001   22.9137  -25.7274 H   0  0  0  0  0  0  0  0  0  0  0  0
  -19.1350   22.4480  -25.7274 H   0  0  0  0  0  0  0  0  0  0  0  0
  -18.5975   22.9443  -27.8880 H   0  0  0  0  0  0  0  0  0  0  0  0
  -17.2793   22.1073  -28.7761 H   0  0  0  0  0  0  0  0  0  0  0  0
  -18.9392   21.4207  -28.7761 H   0  0  0  0  0  0  0  0  0  0  0  0
  -19.1418   19.9787  -24.7826 H   0  0  0  0  0  0  0  0  0  0  0  0
  -20.4854   17.8642  -24.7386 H   0  0  0  0  0  0  0  0  0  0  0  0
  -23.0143   18.1135  -28.5242 H   0  0  0  0  0  0  0  0  0  0  0  0
  -24.9106   19.7680  -27.9391 H   0  0  0  0  0  0  0  0  0  0  0  0
  -25.7504   19.3505  -25.5383 H   0  0  0  0  0  0  0  0  0  0  0  0
  -19.7051   15.5241  -28.0868 H   0  0  0  0  0  0  0  0  0  0  0  0
  -20.7600   15.2160  -24.7810 H   0  0  0  0  0  0  0  0  0  0  0  0
  -19.7815   12.6301  -24.0369 H   0  0  0  0  0  0  0  0  0  0  0  0
  -17.8835   14.2204  -23.9471 H   0  0  0  0  0  0  0  0  0  0  0  0
  -18.9028   15.3604  -22.9694 H   0  0  0  0  0  0  0  0  0  0  0  0
  -18.0451   12.5557  -22.1171 H   0  0  0  0  0  0  0  0  0  0  0  0
  -17.3318   14.1002  -21.5376 H   0  0  0  0  0  0  0  0  0  0  0  0
  -19.0400   13.1393  -20.0039 H   0  0  0  0  0  0  0  0  0  0  0  0
  -19.4409   14.8018  -20.6474 H   0  0  0  0  0  0  0  0  0  0  0  0
  -20.6481   12.1444  -21.4119 H   0  0  0  0  0  0  0  0  0  0  0  0
  -21.4221   13.6291  -20.6527 H   0  0  0  0  0  0  0  0  0  0  0  0
  -21.9471   13.1620  -23.1135 H   0  0  0  0  0  0  0  0  0  0  0  0
  -21.3828   14.8229  -22.6403 H   0  0  0  0  0  0  0  0  0  0  0  0
  -20.7852   15.2057  -30.0457 H   0  0  0  0  0  0  0  0  0  0  0  0
  -22.2171   13.7392  -31.4498 H   0  0  0  0  0  0  0  0  0  0  0  0
  -23.5734   11.9590  -30.3785 H   0  0  0  0  0  0  0  0  0  0  0  0
  -22.1196   13.1171  -26.5743 H   0  0  0  0  0  0  0  0  0  0  0  0
  -19.7902   17.3272  -28.9679 H   0  0  0  0  0  0  0  0  0  0  0  0
  -18.4430   19.4424  -29.0154 H   0  0  0  0  0  0  0  0  0  0  0  0
  1  2  1  0
  2  3  1  0
  2  4  1  0
  2  5  1  0
  5  6  2  0
  6  7  1  0
  7  8  2  0
  8  9  1  0
  9 10  1  0
 10 11  2  0
 10 12  1  0
 12 13  2  0
 13 14  1  0
 14 15  1  0
 15 16  2  0
  9 17  1  0
 17 18  1  0
 18 19  2  0
 18 20  1  0
 20 21  1  0
 21 22  1  0
 22 23  1  0
 23 24  1  0
 24 25  1  0
 25 26  1  0
 17 27  1  0
 27 28  2  0
 28 29  1  0
 29 30  2  0
 30 31  1  0
 31 32  2  0
  8 33  1  0
 33 34  2  0
 34  5  1  0
 16 12  1  0
 26 21  1  0
 32 27  1  0
  1 35  1  0
  1 36  1  0
  1 37  1  0
  3 38  1  0
  3 39  1  0
  3 40  1  0
  4 41  1  0
  4 42  1  0
  4 43  1  0
  6 44  1  0
  7 45  1  0
 13 46  1  0
 14 47  1  0
 15 48  1  0
 17 49  1  0
 20 50  1  0
 21 51  1  0
 22 52  1  0
 22 53  1  0
 23 54  1  0
 23 55  1  0
 24 56  1  0
 24 57  1  0
 25 58  1  0
 25 59  1  0
 26 60  1  0
 26 61  1  0
 28 62  1  0
 29 63  1  0
 30 64  1  0
 32 65  1  0
 33 66  1  0
 34 67  1  0
M  END
>  <meeko>  (4) 
{"free_energy": -9.142, "intermolecular_energy": -11.528, "internal_energy": -3.173}

$$$$

     RDKit          3D

 67 70  0  0  0  0  0  0  0  0999 V2000
  -17.2090   22.2670  -28.0920 C   0  0  0  0  0  0  0  0  0  0  0  0
  -17.4240   21.5320  -26.7650 C   0  0  0  0  0  0  0  0  0  0  0  0
  -16.0390   21.1600  -26.1940 C   0  0  0  0  0  0  0  0  0  0  0  0
  -18.1090   22.4580  -25.7650 C   0  0  0  0  0  0  0  0  0  0  0  0
  -18.3400   20.2860  -27.0550 C   0  0  0  0  0  0  0  0  0  0  0  0
  -19.6330   20.2330  -26.5190 C   0  0  0  0  0  0  0  0  0  0  0  0
  -20.4540   19.1280  -26.7770 C   0  0  0  0  0  0  0  0  0  0  0  0
  -19.9770   18.0910  -27.5840 C   0  0  0  0  0  0  0  0  0  0  0  0
  -20.8730   16.9380  -27.8350 N   0  0  0  0  0  0  0  0  0  0  0  0
  -22.2020   17.0650  -28.4480 C   0  0  0  0  0  0  0  0  0  0  0  0
  -23.1010   17.3480  -27.7360 O   0  0  0  0  0  0  0  0  0  0  0  0
  -22.4290   16.8370  -29.9600 C   0  0  0  0  0  0  0  0  0  0  0  0
  -22.1490   17.6860  -31.0130 C   0  0  0  0  0  0  0  0  0  0  0  0
  -22.4810   17.0680  -32.1410 N   0  0  0  0  0  0  0  0  0  0  0  0
  -22.9540   15.8680  -31.8130 C   0  0  0  0  0  0  0  0  0  0  0  0
  -22.9140   15.7270  -30.4730 N   0  0  0  0  0  0  0  0  0  0  0  0
  -20.3250   15.6350  -27.5990 C   0  0  0  0  0  0  0  0  0  0  0  0
  -20.3280   15.3780  -26.0640 C   0  0  0  0  0  0  0  0  0  0  0  0
  -20.7940   16.1790  -25.2940 O   0  0  0  0  0  0  0  0  0  0  0  0
  -19.7810   14.0920  -25.6010 N   0  0  0  0  0  0  0  0  0  0  0  0
  -19.7320   13.7070  -24.2110 C   0  0  0  0  0  0  0  0  0  0  0  0
  -18.6680   14.5810  -23.5540 C   0  0  0  0  0  0  0  0  0  0  0  0
  -18.5920   14.3520  -22.0460 C   0  0  0  0  0  0  0  0  0  0  0  0
  -19.9170   14.6770  -21.4200 C   0  0  0  0  0  0  0  0  0  0  0  0
  -21.0820   13.9490  -22.0580 C   0  0  0  0  0  0  0  0  0  0  0  0
  -21.1120   13.9930  -23.5940 C   0  0  0  0  0  0  0  0  0  0  0  0
  -21.0780   14.4440  -28.1150 C   0  0  0  0  0  0  0  0  0  0  0  0
  -20.6100   13.8250  -29.2180 C   0  0  0  0  0  0  0  0  0  0  0  0
  -21.2620   12.7090  -29.6790 C   0  0  0  0  0  0  0  0  0  0  0  0
  -22.3760   12.2420  -29.0080 C   0  0  0  0  0  0  0  0  0  0  0  0
  -22.8210   12.8680  -27.9060 N   0  0  0  0  0  0  0  0  0  0  0  0
  -22.1890   13.9780  -27.4650 C   0  0  0  0  0  0  0  0  0  0  0  0
  -18.7010   18.1320  -28.1130 C   0  0  0  0  0  0  0  0  0  0  0  0
  -17.8770   19.2410  -27.8530 C   0  0  0  0  0  0  0  0  0  0  0  0
  -16.9054   23.3050  -27.8912 H   0  0  0  0  0  0  0  0  0  0  0  0
  -16.4216   21.7597  -28.6688 H   0  0  0  0  0  0  0  0  0  0  0  0
  -18.1457   22.2640  -28.6688 H   0  0  0  0  0  0  0  0  0  0  0  0
  -16.0805   21.1712  -25.0948 H   0  0  0  0  0  0  0  0  0  0  0  0
  -15.7577   20.1545  -26.5401 H   0  0  0  0  0  0  0  0  0  0  0  0
  -15.2918   21.8893  -26.5401 H   0  0  0  0  0  0  0  0  0  0  0  0
  -17.8693   22.1340  -24.7415 H   0  0  0  0  0  0  0  0  0  0  0  0
  -17.7538   23.4880  -25.9162 H   0  0  0  0  0  0  0  0  0  0  0  0
  -19.1979   22.4198  -25.9162 H   0  0  0  0  0  0  0  0  0  0  0  0
  -20.0038   21.0596  -25.8951 H   0  0  0  0  0  0  0  0  0  0  0  0
  -21.4657   19.0766  -26.3482 H   0  0  0  0  0  0  0  0  0  0  0  0
  -21.7249   18.6977  -30.9316 H   0  0  0  0  0  0  0  0  0  0  0  0
  -22.3893   17.4476  -33.0941 H   0  0  0  0  0  0  0  0  0  0  0  0
  -23.3196   15.1113  -32.5228 H   0  0  0  0  0  0  0  0  0  0  0  0
  -19.3579   15.6891  -28.1204 H   0  0  0  0  0  0  0  0  0  0  0  0
  -19.4750   13.5440  -26.1880 H   0  0  0  0  0  0  0  0  0  0  0  0
  -19.4896   12.6427  -24.0746 H   0  0  0  0  0  0  0  0  0  0  0  0
  -17.6900   14.3451  -23.9989 H   0  0  0  0  0  0  0  0  0  0  0  0
  -18.9390   15.6333  -23.7250 H   0  0  0  0  0  0  0  0  0  0  0  0
  -18.3418   13.2994  -21.8477 H   0  0  0  0  0  0  0  0  0  0  0  0
  -17.8157   15.0022  -21.6164 H   0  0  0  0  0  0  0  0  0  0  0  0
  -19.8758   14.4025  -20.3556 H   0  0  0  0  0  0  0  0  0  0  0  0
  -20.0887   15.7535  -21.5671 H   0  0  0  0  0  0  0  0  0  0  0  0
  -21.0370   12.8947  -21.7475 H   0  0  0  0  0  0  0  0  0  0  0  0
  -21.9914   14.4658  -21.7176 H   0  0  0  0  0  0  0  0  0  0  0  0
  -21.8252   13.2379  -23.9561 H   0  0  0  0  0  0  0  0  0  0  0  0
  -21.4136   15.0066  -23.8968 H   0  0  0  0  0  0  0  0  0  0  0  0
  -19.7205   14.2083  -29.7394 H   0  0  0  0  0  0  0  0  0  0  0  0
  -20.8997   12.1889  -30.5780 H   0  0  0  0  0  0  0  0  0  0  0  0
  -22.9026   11.3505  -29.3792 H   0  0  0  0  0  0  0  0  0  0  0  0
  -22.5689   14.5094  -26.5799 H   0  0  0  0  0  0  0  0  0  0  0  0
  -18.3323   17.3020  -28.7337 H   0  0  0  0  0  0  0  0  0  0  0  0
  -16.8643   19.2842  -28.2804 H   0  0  0  0  0  0  0  0  0  0  0  0
  1  2  1  0
  2  3  1  0
  2  4  1  0
  2  5  1  0
  5  6  2  0
  6  7  1  0
  7  8  2  0
  8  9  1  0
  9 10  1  0
 10 11  2  0
 10 12  1  0
 12 13  2  0
 13 14  1  0
 14 15  1  0
 15 16  2  0
  9 17  1  0
 17 18  1  0
 18 19  2  0
 18 20  1  0
 20 21  1  0
 21 22  1  0
 22 23  1  0
 23 24  1  0
 24 25  1  0
 25 26  1  0
 17 27  1  0
 27 28  2  0
 28 29  1  0
 29 30  2  0
 30 31  1  0
 31 32  2  0
  8 33  1  0
 33 34  2  0
 34  5  1  0
 16 12  1  0
 26 21  1  0
 32 27  1  0
  1 35  1  0
  1 36  1  0
  1 37  1  0
  3 38  1  0
  3 39  1  0
  3 40  1  0
  4 41  1  0
  4 42  1  0
  4 43  1  0
  6 44  1  0
  7 45  1  0
 13 46  1  0
 14 47  1  0
 15 48  1  0
 17 49  1  0
 20 50  1  0
 21 51  1  0
 22 52  1  0
 22 53  1  0
 23 54  1  0
 23 55  1  0
 24 56  1  0
 24 57  1  0
 25 58  1  0
 25 59  1  0
 26 60  1  0
 26 61  1  0
 28 62  1  0
 29 63  1  0
 30 64  1  0
 32 65  1  0
 33 66  1  0
 34 67  1  0
M  END
>  <meeko>  (5) 
{"free_energy": -9.141, "intermolecular_energy": -11.528, "internal_energy": -2.746}

$$$$

     RDKit          3D

 67 70  0  0  0  0  0  0  0  0999 V2000
  -19.4390   13.3680  -28.8230 C   0  0  0  0  0  0  0  0  0  0  0  0
  -20.7980   14.0690  -28.7290 C   0  0  0  0  0  0  0  0  0  0  0  0
  -21.6450   13.6380  -29.9450 C   0  0  0  0  0  0  0  0  0  0  0  0
  -21.5280   13.6190  -27.4670 C   0  0  0  0  0  0  0  0  0  0  0  0
  -20.5310   15.6180  -28.6670 C   0  0  0  0  0  0  0  0  0  0  0  0
  -21.5950   16.5000  -28.4410 C   0  0  0  0  0  0  0  0  0  0  0  0
  -21.3610   17.8800  -28.3800 C   0  0  0  0  0  0  0  0  0  0  0  0
  -20.0580   18.3640  -28.5320 C   0  0  0  0  0  0  0  0  0  0  0  0
  -19.8490   19.8290  -28.4630 N   0  0  0  0  0  0  0  0  0  0  0  0
  -20.0120   20.7240  -29.6160 C   0  0  0  0  0  0  0  0  0  0  0  0
  -19.7520   21.8650  -29.4550 O   0  0  0  0  0  0  0  0  0  0  0  0
  -20.5060   20.2070  -30.9870 C   0  0  0  0  0  0  0  0  0  0  0  0
  -20.1230   20.6120  -32.2520 C   0  0  0  0  0  0  0  0  0  0  0  0
  -20.7840   19.8770  -33.1370 N   0  0  0  0  0  0  0  0  0  0  0  0
  -21.5610   19.0360  -32.4580 C   0  0  0  0  0  0  0  0  0  0  0  0
  -21.3820   19.2370  -31.1370 N   0  0  0  0  0  0  0  0  0  0  0  0
  -19.6300   20.3870  -27.1610 C   0  0  0  0  0  0  0  0  0  0  0  0
  -19.3950   19.2140  -26.1650 C   0  0  0  0  0  0  0  0  0  0  0  0
  -18.2850   18.8780  -25.8410 O   0  0  0  0  0  0  0  0  0  0  0  0
  -20.5920   18.5690  -25.5980 N   0  0  0  0  0  0  0  0  0  0  0  0
  -20.5310   17.4820  -24.6520 C   0  0  0  0  0  0  0  0  0  0  0  0
  -21.9490   16.9290  -24.5320 C   0  0  0  0  0  0  0  0  0  0  0  0
  -22.0050   15.6930  -23.6370 C   0  0  0  0  0  0  0  0  0  0  0  0
  -21.1300   14.6160  -24.2100 C   0  0  0  0  0  0  0  0  0  0  0  0
  -19.7110   15.0700  -24.4790 C   0  0  0  0  0  0  0  0  0  0  0  0
  -19.5880   16.4090  -25.2240 C   0  0  0  0  0  0  0  0  0  0  0  0
  -18.4080   21.2280  -26.9450 C   0  0  0  0  0  0  0  0  0  0  0  0
  -18.4400   22.1580  -25.9670 C   0  0  0  0  0  0  0  0  0  0  0  0
  -17.3160   22.9080  -25.7280 C   0  0  0  0  0  0  0  0  0  0  0  0
  -16.1790   22.6960  -26.4840 C   0  0  0  0  0  0  0  0  0  0  0  0
  -16.1640   21.7600  -27.4470 N   0  0  0  0  0  0  0  0  0  0  0  0
  -17.2790   21.0350  -27.6940 C   0  0  0  0  0  0  0  0  0  0  0  0
  -19.0030   17.5020  -28.7600 C   0  0  0  0  0  0  0  0  0  0  0  0
  -19.2380   16.1160  -28.8220 C   0  0  0  0  0  0  0  0  0  0  0  0
  -19.0572   13.1711  -27.8104 H   0  0  0  0  0  0  0  0  0  0  0  0
  -19.5538   12.4166  -29.3631 H   0  0  0  0  0  0  0  0  0  0  0  0
  -18.7303   14.0130  -29.3631 H   0  0  0  0  0  0  0  0  0  0  0  0
  -22.5745   13.1650  -29.5953 H   0  0  0  0  0  0  0  0  0  0  0  0
  -21.8894   14.5214  -30.5532 H   0  0  0  0  0  0  0  0  0  0  0  0
  -21.0748   12.9204  -30.5532 H   0  0  0  0  0  0  0  0  0  0  0  0
  -20.9732   13.9610  -26.5808 H   0  0  0  0  0  0  0  0  0  0  0  0
  -22.5398   14.0504  -27.4552 H   0  0  0  0  0  0  0  0  0  0  0  0
  -21.5972   12.5212  -27.4552 H   0  0  0  0  0  0  0  0  0  0  0  0
  -22.6150   16.1091  -28.3113 H   0  0  0  0  0  0  0  0  0  0  0  0
  -22.1956   18.5771  -28.2139 H   0  0  0  0  0  0  0  0  0  0  0  0
  -19.3970   21.4051  -32.4843 H   0  0  0  0  0  0  0  0  0  0  0  0
  -20.7095   19.9448  -34.1621 H   0  0  0  0  0  0  0  0  0  0  0  0
  -22.2409   18.2950  -32.9038 H   0  0  0  0  0  0  0  0  0  0  0  0
  -20.5178   21.0221  -27.0252 H   0  0  0  0  0  0  0  0  0  0  0  0
  -21.3640   18.8540  -25.8450 H   0  0  0  0  0  0  0  0  0  0  0  0
  -20.1591   17.7996  -23.6667 H   0  0  0  0  0  0  0  0  0  0  0  0
  -22.5990   17.7069  -24.1049 H   0  0  0  0  0  0  0  0  0  0  0  0
  -22.2870   16.6372  -25.5373 H   0  0  0  0  0  0  0  0  0  0  0  0
  -21.6509   15.9546  -22.6290 H   0  0  0  0  0  0  0  0  0  0  0  0
  -23.0417   15.3297  -23.5804 H   0  0  0  0  0  0  0  0  0  0  0  0
  -21.0984   13.7778  -23.4984 H   0  0  0  0  0  0  0  0  0  0  0  0
  -21.5657   14.3258  -25.1774 H   0  0  0  0  0  0  0  0  0  0  0  0
  -19.1951   15.1685  -23.5125 H   0  0  0  0  0  0  0  0  0  0  0  0
  -19.2643   14.3098  -25.1367 H   0  0  0  0  0  0  0  0  0  0  0  0
  -18.5514   16.7672  -25.1397 H   0  0  0  0  0  0  0  0  0  0  0  0
  -19.8687   16.2381  -26.2737 H   0  0  0  0  0  0  0  0  0  0  0  0
  -19.3520   22.3120  -25.3715 H   0  0  0  0  0  0  0  0  0  0  0  0
  -17.3201   23.6741  -24.9386 H   0  0  0  0  0  0  0  0  0  0  0  0
  -15.2785   23.2990  -26.2955 H   0  0  0  0  0  0  0  0  0  0  0  0
  -17.2782   20.2870  -28.5005 H   0  0  0  0  0  0  0  0  0  0  0  0
  -17.9849   17.8968  -28.8924 H   0  0  0  0  0  0  0  0  0  0  0  0
  -18.4001   15.4242  -28.9931 H   0  0  0  0  0  0  0  0  0  0  0  0
  1  2  1  0
  2  3  1  0
  2  4  1  0
  2  5  1  0
  5  6  2  0
  6  7  1  0
  7  8  2  0
  8  9  1  0
  9 10  1  0
 10 11  2  0
 10 12  1  0
 12 13  2  0
 13 14  1  0
 14 15  1  0
 15 16  2  0
  9 17  1  0
 17 18  1  0
 18 19  2  0
 18 20  1  0
 20 21  1  0
 21 22  1  0
 22 23  1  0
 23 24  1  0
 24 25  1  0
 25 26  1  0
 17 27  1  0
 27 28  2  0
 28 29  1  0
 29 30  2  0
 30 31  1  0
 31 32  2  0
  8 33  1  0
 33 34  2  0
 34  5  1  0
 16 12  1  0
 26 21  1  0
 32 27  1  0
  1 35  1  0
  1 36  1  0
  1 37  1  0
  3 38  1  0
  3 39  1  0
  3 40  1  0
  4 41  1  0
  4 42  1  0
  4 43  1  0
  6 44  1  0
  7 45  1  0
 13 46  1  0
 14 47  1  0
 15 48  1  0
 17 49  1  0
 20 50  1  0
 21 51  1  0
 22 52  1  0
 22 53  1  0
 23 54  1  0
 23 55  1  0
 24 56  1  0
 24 57  1  0
 25 58  1  0
 25 59  1  0
 26 60  1  0
 26 61  1  0
 28 62  1  0
 29 63  1  0
 30 64  1  0
 32 65  1  0
 33 66  1  0
 34 67  1  0
M  END
>  <meeko>  (6) 
{"free_energy": -8.899, "intermolecular_energy": -11.286, "internal_energy": -3.314}

$$$$

     RDKit          3D

 67 70  0  0  0  0  0  0  0  0999 V2000
  -21.1370   18.4730  -30.9540 C   0  0  0  0  0  0  0  0  0  0  0  0
  -22.1380   17.4440  -30.4210 C   0  0  0  0  0  0  0  0  0  0  0  0
  -23.5580   18.0240  -30.5910 C   0  0  0  0  0  0  0  0  0  0  0  0
  -22.0540   16.1630  -31.2460 C   0  0  0  0  0  0  0  0  0  0  0  0
  -21.7570   17.1400  -28.9250 C   0  0  0  0  0  0  0  0  0  0  0  0
  -22.7540   17.1260  -27.9420 C   0  0  0  0  0  0  0  0  0  0  0  0
  -22.4210   16.8530  -26.6090 C   0  0  0  0  0  0  0  0  0  0  0  0
  -21.0910   16.5800  -26.2750 C   0  0  0  0  0  0  0  0  0  0  0  0
  -20.7750   16.2960  -24.8550 N   0  0  0  0  0  0  0  0  0  0  0  0
  -20.4000   17.3360  -23.8880 C   0  0  0  0  0  0  0  0  0  0  0  0
  -20.5670   17.0930  -22.7430 O   0  0  0  0  0  0  0  0  0  0  0  0
  -19.8170   18.6960  -24.3340 C   0  0  0  0  0  0  0  0  0  0  0  0
  -19.9930   19.9410  -23.7620 C   0  0  0  0  0  0  0  0  0  0  0  0
  -19.2820   20.8190  -24.4600 N   0  0  0  0  0  0  0  0  0  0  0  0
  -18.6770   20.1540  -25.4400 C   0  0  0  0  0  0  0  0  0  0  0  0
  -19.0020   18.8480  -25.3560 N   0  0  0  0  0  0  0  0  0  0  0  0
  -21.0070   14.9580  -24.4000 C   0  0  0  0  0  0  0  0  0  0  0  0
  -20.7930   13.9930  -25.6040 C   0  0  0  0  0  0  0  0  0  0  0  0
  -19.7800   13.3530  -25.7230 O   0  0  0  0  0  0  0  0  0  0  0  0
  -21.9050   13.8610  -26.5600 N   0  0  0  0  0  0  0  0  0  0  0  0
  -21.8590   12.9950  -27.7120 C   0  0  0  0  0  0  0  0  0  0  0  0
  -23.1260   13.2720  -28.5170 C   0  0  0  0  0  0  0  0  0  0  0  0
  -23.1480   12.4940  -29.8310 C   0  0  0  0  0  0  0  0  0  0  0  0
  -21.9660   12.8860  -30.6690 C   0  0  0  0  0  0  0  0  0  0  0  0
  -20.6420   12.7580  -29.9450 C   0  0  0  0  0  0  0  0  0  0  0  0
  -20.6130   13.3690  -28.5350 C   0  0  0  0  0  0  0  0  0  0  0  0
  -20.0760   14.3850  -23.3730 C   0  0  0  0  0  0  0  0  0  0  0  0
  -18.7820   14.7660  -23.4050 C   0  0  0  0  0  0  0  0  0  0  0  0
  -17.9250   14.2860  -22.4480 C   0  0  0  0  0  0  0  0  0  0  0  0
  -18.4010   13.4290  -21.4730 C   0  0  0  0  0  0  0  0  0  0  0  0
  -19.6940   13.0680  -21.4530 N   0  0  0  0  0  0  0  0  0  0  0  0
  -20.5330   13.5280  -22.4090 C   0  0  0  0  0  0  0  0  0  0  0  0
  -20.0990   16.5970  -27.2380 C   0  0  0  0  0  0  0  0  0  0  0  0
  -20.4340   16.8720  -28.5750 C   0  0  0  0  0  0  0  0  0  0  0  0
  -20.6456   18.9781  -30.1094 H   0  0  0  0  0  0  0  0  0  0  0  0
  -20.3794   17.9638  -31.5677 H   0  0  0  0  0  0  0  0  0  0  0  0
  -21.6669   19.2163  -31.5677 H   0  0  0  0  0  0  0  0  0  0  0  0
  -24.0011   18.2050  -29.6006 H   0  0  0  0  0  0  0  0  0  0  0  0
  -23.5029   18.9717  -31.1468 H   0  0  0  0  0  0  0  0  0  0  0  0
  -24.1821   17.3087  -31.1468 H   0  0  0  0  0  0  0  0  0  0  0  0
  -21.9971   15.2957  -30.5718 H   0  0  0  0  0  0  0  0  0  0  0  0
  -22.9484   16.0762  -31.8805 H   0  0  0  0  0  0  0  0  0  0  0  0
  -21.1559   16.1937  -31.8805 H   0  0  0  0  0  0  0  0  0  0  0  0
  -23.7995   17.3295  -28.2167 H   0  0  0  0  0  0  0  0  0  0  0  0
  -23.1992   16.8534  -25.8316 H   0  0  0  0  0  0  0  0  0  0  0  0
  -20.6136   20.1659  -22.8821 H   0  0  0  0  0  0  0  0  0  0  0  0
  -19.2119   21.8300  -24.2760 H   0  0  0  0  0  0  0  0  0  0  0  0
  -18.0163   20.5988  -26.1987 H   0  0  0  0  0  0  0  0  0  0  0  0
  -22.0112   15.0314  -23.9570 H   0  0  0  0  0  0  0  0  0  0  0  0
  -22.6160   14.3240  -26.4250 H   0  0  0  0  0  0  0  0  0  0  0  0
  -21.8045   11.9308  -27.4389 H   0  0  0  0  0  0  0  0  0  0  0  0
  -23.9999   12.9799  -27.9162 H   0  0  0  0  0  0  0  0  0  0  0  0
  -23.1498   14.3454  -28.7562 H   0  0  0  0  0  0  0  0  0  0  0  0
  -23.1044   11.4156  -29.6185 H   0  0  0  0  0  0  0  0  0  0  0  0
  -24.0748   12.7251  -30.3765 H   0  0  0  0  0  0  0  0  0  0  0  0
  -21.9402   12.2393  -31.5585 H   0  0  0  0  0  0  0  0  0  0  0  0
  -22.0914   13.9477  -30.9280 H   0  0  0  0  0  0  0  0  0  0  0  0
  -20.4020   11.6880  -29.8586 H   0  0  0  0  0  0  0  0  0  0  0  0
  -19.9092   13.3223  -30.5405 H   0  0  0  0  0  0  0  0  0  0  0  0
  -19.7186   13.0035  -28.0092 H   0  0  0  0  0  0  0  0  0  0  0  0
  -20.5959   14.4636  -28.6422 H   0  0  0  0  0  0  0  0  0  0  0  0
  -18.4203   15.4507  -24.1862 H   0  0  0  0  0  0  0  0  0  0  0  0
  -16.8653   14.5810  -22.4560 H   0  0  0  0  0  0  0  0  0  0  0  0
  -17.7143   13.0395  -20.7070 H   0  0  0  0  0  0  0  0  0  0  0  0
  -21.5866   13.2120  -22.4116 H   0  0  0  0  0  0  0  0  0  0  0  0
  -19.0539   16.3965  -26.9594 H   0  0  0  0  0  0  0  0  0  0  0  0
  -19.6506   16.8758  -29.3472 H   0  0  0  0  0  0  0  0  0  0  0  0
  1  2  1  0
  2  3  1  0
  2  4  1  0
  2  5  1  0
  5  6  2  0
  6  7  1  0
  7  8  2  0
  8  9  1  0
  9 10  1  0
 10 11  2  0
 10 12  1  0
 12 13  2  0
 13 14  1  0
 14 15  1  0
 15 16  2  0
  9 17  1  0
 17 18  1  0
 18 19  2  0
 18 20  1  0
 20 21  1  0
 21 22  1  0
 22 23  1  0
 23 24  1  0
 24 25  1  0
 25 26  1  0
 17 27  1  0
 27 28  2  0
 28 29  1  0
 29 30  2  0
 30 31  1  0
 31 32  2  0
  8 33  1  0
 33 34  2  0
 34  5  1  0
 16 12  1  0
 26 21  1  0
 32 27  1  0
  1 35  1  0
  1 36  1  0
  1 37  1  0
  3 38  1  0
  3 39  1  0
  3 40  1  0
  4 41  1  0
  4 42  1  0
  4 43  1  0
  6 44  1  0
  7 45  1  0
 13 46  1  0
 14 47  1  0
 15 48  1  0
 17 49  1  0
 20 50  1  0
 21 51  1  0
 22 52  1  0
 22 53  1  0
 23 54  1  0
 23 55  1  0
 24 56  1  0
 24 57  1  0
 25 58  1  0
 25 59  1  0
 26 60  1  0
 26 61  1  0
 28 62  1  0
 29 63  1  0
 30 64  1  0
 32 65  1  0
 33 66  1  0
 34 67  1  0
M  END
>  <meeko>  (7) 
{"free_energy": -8.537, "intermolecular_energy": -10.924, "internal_energy": -3.197}

$$$$

     RDKit          3D

 67 70  0  0  0  0  0  0  0  0999 V2000
  -22.1680   16.2020  -31.3340 C   0  0  0  0  0  0  0  0  0  0  0  0
  -22.1730   17.5510  -30.6070 C   0  0  0  0  0  0  0  0  0  0  0  0
  -21.2510   18.5160  -31.3830 C   0  0  0  0  0  0  0  0  0  0  0  0
  -23.5800   18.1400  -30.6150 C   0  0  0  0  0  0  0  0  0  0  0  0
  -21.7100   17.2940  -29.1260 C   0  0  0  0  0  0  0  0  0  0  0  0
  -22.6420   17.3650  -28.0830 C   0  0  0  0  0  0  0  0  0  0  0  0
  -22.2360   17.1330  -26.7620 C   0  0  0  0  0  0  0  0  0  0  0  0
  -20.9000   16.8170  -26.5000 C   0  0  0  0  0  0  0  0  0  0  0  0
  -20.5060   16.5790  -25.0910 N   0  0  0  0  0  0  0  0  0  0  0  0
  -19.9310   17.6180  -24.2270 C   0  0  0  0  0  0  0  0  0  0  0  0
  -19.0040   18.2170  -24.6460 O   0  0  0  0  0  0  0  0  0  0  0  0
  -20.5030   17.9210  -22.8230 C   0  0  0  0  0  0  0  0  0  0  0  0
  -20.1090   18.8910  -21.9210 C   0  0  0  0  0  0  0  0  0  0  0  0
  -20.8970   18.8070  -20.8560 N   0  0  0  0  0  0  0  0  0  0  0  0
  -21.7600   17.8180  -21.0740 C   0  0  0  0  0  0  0  0  0  0  0  0
  -21.5200   17.2810  -22.2870 N   0  0  0  0  0  0  0  0  0  0  0  0
  -20.8610   15.3090  -24.5300 C   0  0  0  0  0  0  0  0  0  0  0  0
  -20.7290   14.2320  -25.6470 C   0  0  0  0  0  0  0  0  0  0  0  0
  -19.7950   13.4730  -25.6810 O   0  0  0  0  0  0  0  0  0  0  0  0
  -21.8240   14.1520  -26.6290 N   0  0  0  0  0  0  0  0  0  0  0  0
  -21.8500   13.1960  -27.7090 C   0  0  0  0  0  0  0  0  0  0  0  0
  -23.1060   13.4920  -28.5230 C   0  0  0  0  0  0  0  0  0  0  0  0
  -23.1970   12.6160  -29.7710 C   0  0  0  0  0  0  0  0  0  0  0  0
  -22.0030   12.8610  -30.6470 C   0  0  0  0  0  0  0  0  0  0  0  0
  -20.6810   12.7040  -29.9250 C   0  0  0  0  0  0  0  0  0  0  0  0
  -20.5930   13.4210  -28.5680 C   0  0  0  0  0  0  0  0  0  0  0  0
  -19.9890   14.7420  -23.4490 C   0  0  0  0  0  0  0  0  0  0  0  0
  -20.5890   14.1610  -22.3890 C   0  0  0  0  0  0  0  0  0  0  0  0
  -19.8070   13.6000  -21.4100 C   0  0  0  0  0  0  0  0  0  0  0  0
  -18.4310   13.6380  -21.5290 C   0  0  0  0  0  0  0  0  0  0  0  0
  -17.8540   14.2140  -22.5960 N   0  0  0  0  0  0  0  0  0  0  0  0
  -18.6250   14.7830  -23.5500 C   0  0  0  0  0  0  0  0  0  0  0  0
  -19.9720   16.7500  -27.5220 C   0  0  0  0  0  0  0  0  0  0  0  0
  -20.3800   16.9840  -28.8470 C   0  0  0  0  0  0  0  0  0  0  0  0
  -22.1650   15.3872  -30.5950 H   0  0  0  0  0  0  0  0  0  0  0  0
  -23.0659   16.1219  -31.9644 H   0  0  0  0  0  0  0  0  0  0  0  0
  -21.2696   16.1286  -31.9644 H   0  0  0  0  0  0  0  0  0  0  0  0
  -20.6719   19.1221  -30.6707 H   0  0  0  0  0  0  0  0  0  0  0  0
  -20.5627   17.9363  -32.0156 H   0  0  0  0  0  0  0  0  0  0  0  0
  -21.8615   19.1772  -32.0156 H   0  0  0  0  0  0  0  0  0  0  0  0
  -23.9232   18.2837  -29.5798 H   0  0  0  0  0  0  0  0  0  0  0  0
  -23.5689   19.1090  -31.1355 H   0  0  0  0  0  0  0  0  0  0  0  0
  -24.2625   17.4521  -31.1355 H   0  0  0  0  0  0  0  0  0  0  0  0
  -23.6936   17.6031  -28.3009 H   0  0  0  0  0  0  0  0  0  0  0  0
  -22.9623   17.1990  -25.9386 H   0  0  0  0  0  0  0  0  0  0  0  0
  -19.2862   19.6075  -22.0610 H   0  0  0  0  0  0  0  0  0  0  0  0
  -20.8491   19.3992  -20.0146 H   0  0  0  0  0  0  0  0  0  0  0  0
  -22.5444   17.4907  -20.3757 H   0  0  0  0  0  0  0  0  0  0  0  0
  -21.8566   15.5088  -24.1071 H   0  0  0  0  0  0  0  0  0  0  0  0
  -22.4790   14.7030  -26.5550 H   0  0  0  0  0  0  0  0  0  0  0  0
  -21.8620   12.1553  -27.3530 H   0  0  0  0  0  0  0  0  0  0  0  0
  -23.9891   13.3070  -27.8938 H   0  0  0  0  0  0  0  0  0  0  0  0
  -23.0620   14.5423  -28.8469 H   0  0  0  0  0  0  0  0  0  0  0  0
  -23.2219   11.5572  -29.4739 H   0  0  0  0  0  0  0  0  0  0  0  0
  -24.1138   12.8647  -30.3256 H   0  0  0  0  0  0  0  0  0  0  0  0
  -22.0309   12.1451  -31.4817 H   0  0  0  0  0  0  0  0  0  0  0  0
  -22.0622   13.9045  -30.9899 H   0  0  0  0  0  0  0  0  0  0  0  0
  -20.5100   11.6307  -29.7556 H   0  0  0  0  0  0  0  0  0  0  0  0
  -19.9214   13.1708  -30.5693 H   0  0  0  0  0  0  0  0  0  0  0  0
  -19.7177   13.0394  -28.0218 H   0  0  0  0  0  0  0  0  0  0  0  0
  -20.5049   14.5003  -28.7614 H   0  0  0  0  0  0  0  0  0  0  0  0
  -21.6860   14.1373  -22.3107 H   0  0  0  0  0  0  0  0  0  0  0  0
  -20.2734   13.1228  -20.5355 H   0  0  0  0  0  0  0  0  0  0  0  0
  -17.8030   13.1928  -20.7433 H   0  0  0  0  0  0  0  0  0  0  0  0
  -18.1540   15.2807  -24.4105 H   0  0  0  0  0  0  0  0  0  0  0  0
  -18.9205   16.5150  -27.3001 H   0  0  0  0  0  0  0  0  0  0  0  0
  -19.6477   16.9223  -29.6655 H   0  0  0  0  0  0  0  0  0  0  0  0
  1  2  1  0
  2  3  1  0
  2  4  1  0
  2  5  1  0
  5  6  2  0
  6  7  1  0
  7  8  2  0
  8  9  1  0
  9 10  1  0
 10 11  2  0
 10 12  1  0
 12 13  2  0
 13 14  1  0
 14 15  1  0
 15 16  2  0
  9 17  1  0
 17 18  1  0
 18 19  2  0
 18 20  1  0
 20 21  1  0
 21 22  1  0
 22 23  1  0
 23 24  1  0
 24 25  1  0
 25 26  1  0
 17 27  1  0
 27 28  2  0
 28 29  1  0
 29 30  2  0
 30 31  1  0
 31 32  2  0
  8 33  1  0
 33 34  2  0
 34  5  1  0
 16 12  1  0
 26 21  1  0
 32 27  1  0
  1 35  1  0
  1 36  1  0
  1 37  1  0
  3 38  1  0
  3 39  1  0
  3 40  1  0
  4 41  1  0
  4 42  1  0
  4 43  1  0
  6 44  1  0
  7 45  1  0
 13 46  1  0
 14 47  1  0
 15 48  1  0
 17 49  1  0
 20 50  1  0
 21 51  1  0
 22 52  1  0
 22 53  1  0
 23 54  1  0
 23 55  1  0
 24 56  1  0
 24 57  1  0
 25 58  1  0
 25 59  1  0
 26 60  1  0
 26 61  1  0
 28 62  1  0
 29 63  1  0
 30 64  1  0
 32 65  1  0
 33 66  1  0
 34 67  1  0
M  END
>  <meeko>  (8) 
{"free_energy": -8.428, "intermolecular_energy": -10.814, "internal_energy": -3.261}

$$$$

     RDKit          3D

 67 70  0  0  0  0  0  0  0  0999 V2000
  -18.5950   21.8650  -28.4520 C   0  0  0  0  0  0  0  0  0  0  0  0
  -17.9600   21.0510  -27.3200 C   0  0  0  0  0  0  0  0  0  0  0  0
  -16.4670   20.8480  -27.6540 C   0  0  0  0  0  0  0  0  0  0  0  0
  -18.0450   21.8300  -26.0110 C   0  0  0  0  0  0  0  0  0  0  0  0
  -18.7640   19.7050  -27.1930 C   0  0  0  0  0  0  0  0  0  0  0  0
  -18.8750   19.0750  -25.9470 C   0  0  0  0  0  0  0  0  0  0  0  0
  -19.5940   17.8780  -25.8280 C   0  0  0  0  0  0  0  0  0  0  0  0
  -20.2090   17.3300  -26.9570 C   0  0  0  0  0  0  0  0  0  0  0  0
  -20.9600   16.0630  -26.7940 N   0  0  0  0  0  0  0  0  0  0  0  0
  -20.4270   14.7520  -27.1860 C   0  0  0  0  0  0  0  0  0  0  0  0
  -19.3770   14.4410  -26.7420 O   0  0  0  0  0  0  0  0  0  0  0  0
  -21.1950   13.8110  -28.1430 C   0  0  0  0  0  0  0  0  0  0  0  0
  -20.7730   13.2650  -29.3400 C   0  0  0  0  0  0  0  0  0  0  0  0
  -21.7480   12.4950  -29.8080 N   0  0  0  0  0  0  0  0  0  0  0  0
  -22.7530   12.5510  -28.9380 C   0  0  0  0  0  0  0  0  0  0  0  0
  -22.4070   13.3560  -27.9130 N   0  0  0  0  0  0  0  0  0  0  0  0
  -22.1960   16.1370  -26.0720 C   0  0  0  0  0  0  0  0  0  0  0  0
  -21.8960   15.8630  -24.5690 C   0  0  0  0  0  0  0  0  0  0  0  0
  -22.7530   15.9630  -23.7290 O   0  0  0  0  0  0  0  0  0  0  0  0
  -20.5310   15.4270  -24.2290 N   0  0  0  0  0  0  0  0  0  0  0  0
  -20.1110   15.1220  -22.8830 C   0  0  0  0  0  0  0  0  0  0  0  0
  -21.1160   14.1140  -22.3310 C   0  0  0  0  0  0  0  0  0  0  0  0
  -20.7210   13.6180  -20.9420 C   0  0  0  0  0  0  0  0  0  0  0  0
  -19.3780   12.9510  -21.0070 C   0  0  0  0  0  0  0  0  0  0  0  0
  -18.3050   13.8130  -21.6390 C   0  0  0  0  0  0  0  0  0  0  0  0
  -18.7090   14.4890  -22.9590 C   0  0  0  0  0  0  0  0  0  0  0  0
  -22.9060   17.4570  -26.0130 C   0  0  0  0  0  0  0  0  0  0  0  0
  -22.5600   18.3210  -25.0350 C   0  0  0  0  0  0  0  0  0  0  0  0
  -23.1690   19.5500  -24.9910 C   0  0  0  0  0  0  0  0  0  0  0  0
  -24.1160   19.8780  -25.9430 C   0  0  0  0  0  0  0  0  0  0  0  0
  -24.4390   19.0070  -26.9130 N   0  0  0  0  0  0  0  0  0  0  0  0
  -23.8520   17.7900  -26.9440 C   0  0  0  0  0  0  0  0  0  0  0  0
  -20.1010   17.9420  -28.1920 C   0  0  0  0  0  0  0  0  0  0  0  0
  -19.3780   19.1430  -28.3110 C   0  0  0  0  0  0  0  0  0  0  0  0
  -19.2183   22.6640  -28.0241 H   0  0  0  0  0  0  0  0  0  0  0  0
  -17.8032   22.3102  -29.0723 H   0  0  0  0  0  0  0  0  0  0  0  0
  -19.2195   21.2053  -29.0723 H   0  0  0  0  0  0  0  0  0  0  0  0
  -15.8899   20.7695  -26.7208 H   0  0  0  0  0  0  0  0  0  0  0  0
  -16.3445   19.9249  -28.2396 H   0  0  0  0  0  0  0  0  0  0  0  0
  -16.1025   21.7048  -28.2396 H   0  0  0  0  0  0  0  0  0  0  0  0
  -17.9689   21.1326  -25.1637 H   0  0  0  0  0  0  0  0  0  0  0  0
  -17.2208   22.5569  -25.9627 H   0  0  0  0  0  0  0  0  0  0  0  0
  -19.0065   22.3621  -25.9627 H   0  0  0  0  0  0  0  0  0  0  0  0
  -18.3976   19.5200  -25.0615 H   0  0  0  0  0  0  0  0  0  0  0  0
  -19.6737   17.3737  -24.8536 H   0  0  0  0  0  0  0  0  0  0  0  0
  -19.7991   13.4381  -29.8212 H   0  0  0  0  0  0  0  0  0  0  0  0
  -21.7297   11.9535  -30.6840 H   0  0  0  0  0  0  0  0  0  0  0  0
  -23.7135   12.0244  -29.0388 H   0  0  0  0  0  0  0  0  0  0  0  0
  -22.8311   15.4247  -26.6190 H   0  0  0  0  0  0  0  0  0  0  0  0
  -19.9570   15.3530  -24.8640 H   0  0  0  0  0  0  0  0  0  0  0  0
  -20.0704   16.0132  -22.2395 H   0  0  0  0  0  0  0  0  0  0  0  0
  -22.1038   14.5940  -22.2695 H   0  0  0  0  0  0  0  0  0  0  0  0
  -21.1373   13.2479  -23.0088 H   0  0  0  0  0  0  0  0  0  0  0  0
  -20.6727   14.4709  -20.2490 H   0  0  0  0  0  0  0  0  0  0  0  0
  -21.4702   12.8955  -20.5861 H   0  0  0  0  0  0  0  0  0  0  0  0
  -19.0643   12.6995  -19.9831 H   0  0  0  0  0  0  0  0  0  0  0  0
  -19.4904   12.0585  -21.6401 H   0  0  0  0  0  0  0  0  0  0  0  0
  -18.0335   14.6010  -20.9211 H   0  0  0  0  0  0  0  0  0  0  0  0
  -17.4714   13.1376  -21.8819 H   0  0  0  0  0  0  0  0  0  0  0  0
  -17.9770   15.2762  -23.1924 H   0  0  0  0  0  0  0  0  0  0  0  0
  -18.7292   13.7164  -23.7418 H   0  0  0  0  0  0  0  0  0  0  0  0
  -21.8030   18.0446  -24.2863 H   0  0  0  0  0  0  0  0  0  0  0  0
  -22.9050   20.2701  -24.2025 H   0  0  0  0  0  0  0  0  0  0  0  0
  -24.6092   20.8605  -25.9058 H   0  0  0  0  0  0  0  0  0  0  0  0
  -24.1358   17.0644  -27.7205 H   0  0  0  0  0  0  0  0  0  0  0  0
  -20.5773   17.4928  -29.0759 H   0  0  0  0  0  0  0  0  0  0  0  0
  -19.2970   19.6399  -29.2890 H   0  0  0  0  0  0  0  0  0  0  0  0
  1  2  1  0
  2  3  1  0
  2  4  1  0
  2  5  1  0
  5  6  2  0
  6  7  1  0
  7  8  2  0
  8  9  1  0
  9 10  1  0
 10 11  2  0
 10 12  1  0
 12 13  2  0
 13 14  1  0
 14 15  1  0
 15 16  2  0
  9 17  1  0
 17 18  1  0
 18 19  2  0
 18 20  1  0
 20 21  1  0
 21 22  1  0
 22 23  1  0
 23 24  1  0
 24 25  1  0
 25 26  1  0
 17 27  1  0
 27 28  2  0
 28 29  1  0
 29 30  2  0
 30 31  1  0
 31 32  2  0
  8 33  1  0
 33 34  2  0
 34  5  1  0
 16 12  1  0
 26 21  1  0
 32 27  1  0
  1 35  1  0
  1 36  1  0
  1 37  1  0
  3 38  1  0
  3 39  1  0
  3 40  1  0
  4 41  1  0
  4 42  1  0
  4 43  1  0
  6 44  1  0
  7 45  1  0
 13 46  1  0
 14 47  1  0
 15 48  1  0
 17 49  1  0
 20 50  1  0
 21 51  1  0
 22 52  1  0
 22 53  1  0
 23 54  1  0
 23 55  1  0
 24 56  1  0
 24 57  1  0
 25 58  1  0
 25 59  1  0
 26 60  1  0
 26 61  1  0
 28 62  1  0
 29 63  1  0
 30 64  1  0
 32 65  1  0
 33 66  1  0
 34 67  1  0
M  END
>  <meeko>  (9) 
{"free_energy": -8.397, "intermolecular_energy": -10.783, "internal_energy": -3.265}

$$$$

