
     RDKit          3D

 67 70  0  0  0  0  0  0  0  0999 V2000
  -16.3780   20.7380  -27.6020 C   0  0  0  0  0  0  0  0  0  0  0  0
  -17.7920   21.1420  -27.1740 C   0  0  0  0  0  0  0  0  0  0  0  0
  -17.6900   21.8940  -25.8300 C   0  0  0  0  0  0  0  0  0  0  0  0
  -18.3900   22.1000  -28.2010 C   0  0  0  0  0  0  0  0  0  0  0  0
  -18.6590   19.8320  -27.0980 C   0  0  0  0  0  0  0  0  0  0  0  0
  -19.0120   19.3010  -25.8510 C   0  0  0  0  0  0  0  0  0  0  0  0
  -19.7880   18.1370  -25.7780 C   0  0  0  0  0  0  0  0  0  0  0  0
  -20.2170   17.5230  -26.9580 C   0  0  0  0  0  0  0  0  0  0  0  0
  -21.0350   16.2930  -26.8430 N   0  0  0  0  0  0  0  0  0  0  0  0
  -22.3840   16.2710  -26.2630 C   0  0  0  0  0  0  0  0  0  0  0  0
  -23.2510   15.8230  -26.9290 O   0  0  0  0  0  0  0  0  0  0  0  0
  -22.6730   16.8120  -24.8440 C   0  0  0  0  0  0  0  0  0  0  0  0
  -23.1410   18.0590  -24.4740 C   0  0  0  0  0  0  0  0  0  0  0  0
  -23.2670   18.0750  -23.1520 N   0  0  0  0  0  0  0  0  0  0  0  0
  -22.8920   16.8810  -22.7000 C   0  0  0  0  0  0  0  0  0  0  0  0
  -22.5340   16.1050  -23.7430 N   0  0  0  0  0  0  0  0  0  0  0  0
  -20.5190   15.1160  -27.4770 C   0  0  0  0  0  0  0  0  0  0  0  0
  -20.0400   14.1370  -26.3660 C   0  0  0  0  0  0  0  0  0  0  0  0
  -19.3840   13.1610  -26.6280 O   0  0  0  0  0  0  0  0  0  0  0  0
  -20.3810   14.4860  -24.9760 N   0  0  0  0  0  0  0  0  0  0  0  0
  -19.9910   13.6860  -23.8410 C   0  0  0  0  0  0  0  0  0  0  0  0
  -18.7130   14.3090  -23.2870 C   0  0  0  0  0  0  0  0  0  0  0  0
  -18.2510   13.6190  -22.0050 C   0  0  0  0  0  0  0  0  0  0  0  0
  -19.3200   13.7330  -20.9580 C   0  0  0  0  0  0  0  0  0  0  0  0
  -20.6760   13.2440  -21.4210 C   0  0  0  0  0  0  0  0  0  0  0  0
  -21.1190   13.7660  -22.7970 C   0  0  0  0  0  0  0  0  0  0  0  0
  -21.4690   14.2570  -28.2590 C   0  0  0  0  0  0  0  0  0  0  0  0
  -21.5910   14.4880  -29.5830 C   0  0  0  0  0  0  0  0  0  0  0  0
  -22.4230   13.6840  -30.3220 C   0  0  0  0  0  0  0  0  0  0  0  0
  -23.1120   12.6600  -29.7020 C   0  0  0  0  0  0  0  0  0  0  0  0
  -22.9700   12.4410  -28.3840 N   0  0  0  0  0  0  0  0  0  0  0  0
  -22.1640   13.2450  -27.6550 C   0  0  0  0  0  0  0  0  0  0  0  0
  -19.8700   18.0360  -28.1930 C   0  0  0  0  0  0  0  0  0  0  0  0
  -19.0900   19.2040  -28.2660 C   0  0  0  0  0  0  0  0  0  0  0  0
  -15.7608   20.5617  -26.7087 H   0  0  0  0  0  0  0  0  0  0  0  0
  -16.4256   19.8175  -28.2024 H   0  0  0  0  0  0  0  0  0  0  0  0
  -15.9321   21.5447  -28.2024 H   0  0  0  0  0  0  0  0  0  0  0  0
  -17.7871   21.1778  -25.0008 H   0  0  0  0  0  0  0  0  0  0  0  0
  -16.7151   22.3994  -25.7657 H   0  0  0  0  0  0  0  0  0  0  0  0
  -18.4951   22.6408  -25.7657 H   0  0  0  0  0  0  0  0  0  0  0  0
  -18.9031   22.9220  -27.6804 H   0  0  0  0  0  0  0  0  0  0  0  0
  -17.5870   22.5098  -28.8313 H   0  0  0  0  0  0  0  0  0  0  0  0
  -19.1108   21.5586  -28.8313 H   0  0  0  0  0  0  0  0  0  0  0  0
  -18.6796   19.7985  -24.9280 H   0  0  0  0  0  0  0  0  0  0  0  0
  -20.0573   17.7100  -24.8007 H   0  0  0  0  0  0  0  0  0  0  0  0
  -23.3691   18.8921  -25.1552 H   0  0  0  0  0  0  0  0  0  0  0  0
  -23.5951   18.8669  -22.5809 H   0  0  0  0  0  0  0  0  0  0  0  0
  -22.8765   16.5755  -21.6434 H   0  0  0  0  0  0  0  0  0  0  0  0
  -19.7717   15.5305  -28.1696 H   0  0  0  0  0  0  0  0  0  0  0  0
  -20.8350   15.2010  -24.8350 H   0  0  0  0  0  0  0  0  0  0  0  0
  -19.8189   12.6322  -24.1052 H   0  0  0  0  0  0  0  0  0  0  0  0
  -17.9188   14.2227  -24.0431 H   0  0  0  0  0  0  0  0  0  0  0  0
  -18.9228   15.3625  -23.0500 H   0  0  0  0  0  0  0  0  0  0  0  0
  -18.0531   12.5569  -22.2119 H   0  0  0  0  0  0  0  0  0  0  0  0
  -17.3314   14.1012  -21.6419 H   0  0  0  0  0  0  0  0  0  0  0  0
  -19.0157   13.1384  -20.0840 H   0  0  0  0  0  0  0  0  0  0  0  0
  -19.4262   14.8017  -20.7203 H   0  0  0  0  0  0  0  0  0  0  0  0
  -20.6454   12.1454  -21.4664 H   0  0  0  0  0  0  0  0  0  0  0  0
  -21.4067   13.6307  -20.6954 H   0  0  0  0  0  0  0  0  0  0  0  0
  -21.9693   13.1627  -23.1476 H   0  0  0  0  0  0  0  0  0  0  0  0
  -21.3982   14.8238  -22.6825 H   0  0  0  0  0  0  0  0  0  0  0  0
  -21.0334   15.3064  -30.0618 H   0  0  0  0  0  0  0  0  0  0  0  0
  -22.5403   13.8545  -31.4024 H   0  0  0  0  0  0  0  0  0  0  0  0
  -23.7827   12.0183  -30.2923 H   0  0  0  0  0  0  0  0  0  0  0  0
  -22.0665   13.0848  -26.5711 H   0  0  0  0  0  0  0  0  0  0  0  0
  -20.2018   17.5339  -29.1137 H   0  0  0  0  0  0  0  0  0  0  0  0
  -18.8194   19.6230  -29.2464 H   0  0  0  0  0  0  0  0  0  0  0  0
  1  2  1  0
  2  3  1  0
  2  4  1  0
  2  5  1  0
  5  6  2  0
  6  7  1  0
  7  8  2  0
  8  9  1  0
  9 10  1  0
 10 11  2  0
 10 12  1  0
 12 13  2  0
 13 14  1  0
 14 15  1  0
 15 16  2  0
  9 17  1  0
 17 18  1  0
 18 19  2  0
 18 20  1  0
 20 21  1  0
 21 22  1  0
 22 23  1  0
 23 24  1  0
 24 25  1  0
 25 26  1  0
 17 27  1  0
 27 28  2  0
 28 29  1  0
 29 30  2  0
 30 31  1  0
 31 32  2  0
  8 33  1  0
 33 34  2  0
 34  5  1  0
 16 12  1  0
 26 21  1  0
 32 27  1  0
  1 35  1  0
  1 36  1  0
  1 37  1  0
  3 38  1  0
  3 39  1  0
  3 40  1  0
  4 41  1  0
  4 42  1  0
  4 43  1  0
  6 44  1  0
  7 45  1  0
 13 46  1  0
 14 47  1  0
 15 48  1  0
 17 49  1  0
 20 50  1  0
 21 51  1  0
 22 52  1  0
 22 53  1  0
 23 54  1  0
 23 55  1  0
 24 56  1  0
 24 57  1  0
 25 58  1  0
 25 59  1  0
 26 60  1  0
 26 61  1  0
 28 62  1  0
 29 63  1  0
 30 64  1  0
 32 65  1  0
 33 66  1  0
 34 67  1  0
M  END
>  <meeko>  (1) 
{"free_energy": -9.33, "intermolecular_energy": -11.716, "internal_energy": -3.317}

$$$$

     RDKit          3D

 67 70  0  0  0  0  0  0  0  0999 V2000
  -16.3340   21.2220  -26.1960 C   0  0  0  0  0  0  0  0  0  0  0  0
  -17.5720   21.6420  -26.9950 C   0  0  0  0  0  0  0  0  0  0  0  0
  -18.2880   22.7650  -26.2140 C   0  0  0  0  0  0  0  0  0  0  0  0
  -17.1480   22.2090  -28.3470 C   0  0  0  0  0  0  0  0  0  0  0  0
  -18.4580   20.3600  -27.2080 C   0  0  0  0  0  0  0  0  0  0  0  0
  -19.0720   20.1360  -28.4470 C   0  0  0  0  0  0  0  0  0  0  0  0
  -19.8590   18.9930  -28.6430 C   0  0  0  0  0  0  0  0  0  0  0  0
  -20.0120   18.0770  -27.5980 C   0  0  0  0  0  0  0  0  0  0  0  0
  -20.8520   16.8810  -27.8420 N   0  0  0  0  0  0  0  0  0  0  0  0
  -22.1720   16.9380  -28.4840 C   0  0  0  0  0  0  0  0  0  0  0  0
  -23.0980   17.1880  -27.7950 O   0  0  0  0  0  0  0  0  0  0  0  0
  -22.3560   16.6780  -29.9970 C   0  0  0  0  0  0  0  0  0  0  0  0
  -22.1270   17.5380  -31.0550 C   0  0  0  0  0  0  0  0  0  0  0  0
  -22.3900   16.8850  -32.1800 N   0  0  0  0  0  0  0  0  0  0  0  0
  -22.7730   15.6540  -31.8480 C   0  0  0  0  0  0  0  0  0  0  0  0
  -22.7440   15.5290  -30.5060 N   0  0  0  0  0  0  0  0  0  0  0  0
  -20.2540   15.6080  -27.5670 C   0  0  0  0  0  0  0  0  0  0  0  0
  -20.3710   15.3370  -26.0390 C   0  0  0  0  0  0  0  0  0  0  0  0
  -20.9790   16.0820  -25.3130 O   0  0  0  0  0  0  0  0  0  0  0  0
  -19.7510   14.1020  -25.5300 N   0  0  0  0  0  0  0  0  0  0  0  0
  -19.7920   13.7100  -24.1420 C   0  0  0  0  0  0  0  0  0  0  0  0
  -18.7770   14.5840  -23.4110 C   0  0  0  0  0  0  0  0  0  0  0  0
  -18.8010   14.3460  -21.9030 C   0  0  0  0  0  0  0  0  0  0  0  0
  -20.1660   14.6630  -21.3640 C   0  0  0  0  0  0  0  0  0  0  0  0
  -21.2830   13.9340  -22.0810 C   0  0  0  0  0  0  0  0  0  0  0  0
  -21.2120   13.9870  -23.6160 C   0  0  0  0  0  0  0  0  0  0  0  0
  -20.8930   14.3830  -28.1510 C   0  0  0  0  0  0  0  0  0  0  0  0
  -22.0680   13.9700  -27.6310 C   0  0  0  0  0  0  0  0  0  0  0  0
  -22.6880   12.8750  -28.1800 C   0  0  0  0  0  0  0  0  0  0  0  0
  -22.1030   12.2230  -29.2490 C   0  0  0  0  0  0  0  0  0  0  0  0
  -20.9370   12.6550  -29.7570 N   0  0  0  0  0  0  0  0  0  0  0  0
  -20.3190   13.7220  -29.2030 C   0  0  0  0  0  0  0  0  0  0  0  0
  -19.4150   18.2920  -26.3710 C   0  0  0  0  0  0  0  0  0  0  0  0
  -18.6250   19.4400  -26.1740 C   0  0  0  0  0  0  0  0  0  0  0  0
  -16.5499   21.2952  -25.1199 H   0  0  0  0  0  0  0  0  0  0  0  0
  -16.0702   20.1841  -26.4472 H   0  0  0  0  0  0  0  0  0  0  0  0
  -15.4931   21.8851  -26.4472 H   0  0  0  0  0  0  0  0  0  0  0  0
  -18.1760   22.5893  -25.1339 H   0  0  0  0  0  0  0  0  0  0  0  0
  -17.8417   23.7357  -26.4758 H   0  0  0  0  0  0  0  0  0  0  0  0
  -19.3564   22.7700  -26.4758 H   0  0  0  0  0  0  0  0  0  0  0  0
  -16.4959   23.0810  -28.1907 H   0  0  0  0  0  0  0  0  0  0  0  0
  -16.6020   21.4395  -28.9124 H   0  0  0  0  0  0  0  0  0  0  0  0
  -18.0405   22.5152  -28.9124 H   0  0  0  0  0  0  0  0  0  0  0  0
  -18.9364   20.8574  -29.2663 H   0  0  0  0  0  0  0  0  0  0  0  0
  -20.3520   18.8181  -29.6107 H   0  0  0  0  0  0  0  0  0  0  0  0
  -21.7864   18.5811  -30.9778 H   0  0  0  0  0  0  0  0  0  0  0  0
  -22.3120   17.2618  -33.1354 H   0  0  0  0  0  0  0  0  0  0  0  0
  -23.0663   14.8647  -32.5558 H   0  0  0  0  0  0  0  0  0  0  0  0
  -19.2510   15.7200  -28.0045 H   0  0  0  0  0  0  0  0  0  0  0  0
  -19.3430   13.5910  -26.0870 H   0  0  0  0  0  0  0  0  0  0  0  0
  -19.5543   12.6460  -23.9953 H   0  0  0  0  0  0  0  0  0  0  0  0
  -17.7707   14.3540  -23.7912 H   0  0  0  0  0  0  0  0  0  0  0  0
  -19.0395   15.6364  -23.5939 H   0  0  0  0  0  0  0  0  0  0  0  0
  -18.5609   13.2929  -21.6949 H   0  0  0  0  0  0  0  0  0  0  0  0
  -18.0574   14.9962  -21.4190 H   0  0  0  0  0  0  0  0  0  0  0  0
  -20.1940   14.3832  -20.3006 H   0  0  0  0  0  0  0  0  0  0  0  0
  -20.3321   15.7396  -21.5167 H   0  0  0  0  0  0  0  0  0  0  0  0
  -21.2537   12.8781  -21.7741 H   0  0  0  0  0  0  0  0  0  0  0  0
  -22.2152   14.4448  -21.7982 H   0  0  0  0  0  0  0  0  0  0  0  0
  -21.8964   13.2312  -24.0287 H   0  0  0  0  0  0  0  0  0  0  0  0
  -21.4977   15.0010  -23.9326 H   0  0  0  0  0  0  0  0  0  0  0  0
  -22.5213   14.5019  -26.7815 H   0  0  0  0  0  0  0  0  0  0  0  0
  -23.6450   12.5186  -27.7713 H   0  0  0  0  0  0  0  0  0  0  0  0
  -22.5963   11.3430  -29.6874 H   0  0  0  0  0  0  0  0  0  0  0  0
  -19.3504   14.0605  -29.5995 H   0  0  0  0  0  0  0  0  0  0  0  0
  -19.5562   17.5704  -25.5529 H   0  0  0  0  0  0  0  0  0  0  0  0
  -18.1385   19.6116  -25.2025 H   0  0  0  0  0  0  0  0  0  0  0  0
  1  2  1  0
  2  3  1  0
  2  4  1  0
  2  5  1  0
  5  6  2  0
  6  7  1  0
  7  8  2  0
  8  9  1  0
  9 10  1  0
 10 11  2  0
 10 12  1  0
 12 13  2  0
 13 14  1  0
 14 15  1  0
 15 16  2  0
  9 17  1  0
 17 18  1  0
 18 19  2  0
 18 20  1  0
 20 21  1  0
 21 22  1  0
 22 23  1  0
 23 24  1  0
 24 25  1  0
 25 26  1  0
 17 27  1  0
 27 28  2  0
 28 29  1  0
 29 30  2  0
 30 31  1  0
 31 32  2  0
  8 33  1  0
 33 34  2  0
 34  5  1  0
 16 12  1  0
 26 21  1  0
 32 27  1  0
  1 35  1  0
  1 36  1  0
  1 37  1  0
  3 38  1  0
  3 39  1  0
  3 40  1  0
  4 41  1  0
  4 42  1  0
  4 43  1  0
  6 44  1  0
  7 45  1  0
 13 46  1  0
 14 47  1  0
 15 48  1  0
 17 49  1  0
 20 50  1  0
 21 51  1  0
 22 52  1  0
 22 53  1  0
 23 54  1  0
 23 55  1  0
 24 56  1  0
 24 57  1  0
 25 58  1  0
 25 59  1  0
 26 60  1  0
 26 61  1  0
 28 62  1  0
 29 63  1  0
 30 64  1  0
 32 65  1  0
 33 66  1  0
 34 67  1  0
M  END
>  <meeko>  (2) 
{"free_energy": -9.28, "intermolecular_energy": -11.667, "internal_energy": -2.569}

$$$$

     RDKit          3D

 67 70  0  0  0  0  0  0  0  0999 V2000
  -19.3550   13.9410  -21.2880 C   0  0  0  0  0  0  0  0  0  0  0  0
  -20.6850   14.5780  -21.7010 C   0  0  0  0  0  0  0  0  0  0  0  0
  -21.8250   13.6300  -21.2720 C   0  0  0  0  0  0  0  0  0  0  0  0
  -20.8760   15.9020  -20.9660 C   0  0  0  0  0  0  0  0  0  0  0  0
  -20.6300   14.8330  -23.2530 C   0  0  0  0  0  0  0  0  0  0  0  0
  -20.0760   13.8640  -24.0980 C   0  0  0  0  0  0  0  0  0  0  0  0
  -20.0280   14.0840  -25.4810 C   0  0  0  0  0  0  0  0  0  0  0  0
  -20.5510   15.2700  -26.0060 C   0  0  0  0  0  0  0  0  0  0  0  0
  -20.4820   15.4690  -27.4730 N   0  0  0  0  0  0  0  0  0  0  0  0
  -20.2100   14.3830  -28.4240 C   0  0  0  0  0  0  0  0  0  0  0  0
  -19.1260   14.3340  -28.8920 O   0  0  0  0  0  0  0  0  0  0  0  0
  -21.2880   13.3440  -28.8080 C   0  0  0  0  0  0  0  0  0  0  0  0
  -22.4270   12.9850  -28.1130 C   0  0  0  0  0  0  0  0  0  0  0  0
  -23.0770   12.0750  -28.8300 N   0  0  0  0  0  0  0  0  0  0  0  0
  -22.3730   11.8650  -29.9400 C   0  0  0  0  0  0  0  0  0  0  0  0
  -21.2790   12.6510  -29.9270 N   0  0  0  0  0  0  0  0  0  0  0  0
  -20.8570   16.7620  -27.9650 C   0  0  0  0  0  0  0  0  0  0  0  0
  -19.5590   17.5940  -28.1770 C   0  0  0  0  0  0  0  0  0  0  0  0
  -18.6320   17.1620  -28.8140 O   0  0  0  0  0  0  0  0  0  0  0  0
  -19.5360   18.9530  -27.6090 N   0  0  0  0  0  0  0  0  0  0  0  0
  -18.4110   19.8460  -27.7400 C   0  0  0  0  0  0  0  0  0  0  0  0
  -18.9450   21.1310  -28.3680 C   0  0  0  0  0  0  0  0  0  0  0  0
  -17.8700   22.2110  -28.4600 C   0  0  0  0  0  0  0  0  0  0  0  0
  -17.3650   22.5380  -27.0850 C   0  0  0  0  0  0  0  0  0  0  0  0
  -16.9000   21.3240  -26.3070 C   0  0  0  0  0  0  0  0  0  0  0  0
  -17.8680   20.1300  -26.3280 C   0  0  0  0  0  0  0  0  0  0  0  0
  -21.5060   16.8470  -29.3140 C   0  0  0  0  0  0  0  0  0  0  0  0
  -22.6240   16.1230  -29.5290 C   0  0  0  0  0  0  0  0  0  0  0  0
  -23.2550   16.2220  -30.7430 C   0  0  0  0  0  0  0  0  0  0  0  0
  -22.7390   17.0570  -31.7160 C   0  0  0  0  0  0  0  0  0  0  0  0
  -21.6300   17.7760  -31.4790 N   0  0  0  0  0  0  0  0  0  0  0  0
  -20.9990   17.6630  -30.2890 C   0  0  0  0  0  0  0  0  0  0  0  0
  -21.0940   16.2340  -25.1790 C   0  0  0  0  0  0  0  0  0  0  0  0
  -21.1410   16.0130  -23.7910 C   0  0  0  0  0  0  0  0  0  0  0  0
  -19.2888   13.9093  -20.1905 H   0  0  0  0  0  0  0  0  0  0  0  0
  -19.2984   12.9180  -21.6884 H   0  0  0  0  0  0  0  0  0  0  0  0
  -18.5225   14.5381  -21.6884 H   0  0  0  0  0  0  0  0  0  0  0  0
  -21.8742   13.5891  -20.1739 H   0  0  0  0  0  0  0  0  0  0  0  0
  -22.7809   14.0032  -21.6682 H   0  0  0  0  0  0  0  0  0  0  0  0
  -21.6324   12.6221  -21.6682 H   0  0  0  0  0  0  0  0  0  0  0  0
  -20.8506   15.7258  -19.8805 H   0  0  0  0  0  0  0  0  0  0  0  0
  -20.0686   16.5954  -21.2439 H   0  0  0  0  0  0  0  0  0  0  0  0
  -21.8465   16.3390  -21.2439 H   0  0  0  0  0  0  0  0  0  0  0  0
  -19.6781   12.9293  -23.6760 H   0  0  0  0  0  0  0  0  0  0  0  0
  -19.5830   13.3307  -26.1477 H   0  0  0  0  0  0  0  0  0  0  0  0
  -22.7407   13.3831  -27.1367 H   0  0  0  0  0  0  0  0  0  0  0  0
  -23.9629   11.6162  -28.5740 H   0  0  0  0  0  0  0  0  0  0  0  0
  -22.6420   11.1610  -30.7412 H   0  0  0  0  0  0  0  0  0  0  0  0
  -21.5805   17.1012  -27.2090 H   0  0  0  0  0  0  0  0  0  0  0  0
  -20.2270   19.2260  -27.1780 H   0  0  0  0  0  0  0  0  0  0  0  0
  -17.6054   19.4240  -28.3588 H   0  0  0  0  0  0  0  0  0  0  0  0
  -19.3105   20.9063  -29.3809 H   0  0  0  0  0  0  0  0  0  0  0  0
  -19.7552   21.5111  -27.7284 H   0  0  0  0  0  0  0  0  0  0  0  0
  -17.0368   21.8463  -29.0787 H   0  0  0  0  0  0  0  0  0  0  0  0
  -18.2992   23.1154  -28.9159 H   0  0  0  0  0  0  0  0  0  0  0  0
  -16.5192   23.2346  -27.1814 H   0  0  0  0  0  0  0  0  0  0  0  0
  -18.2057   22.9768  -26.5276 H   0  0  0  0  0  0  0  0  0  0  0  0
  -15.9407   20.9933  -26.7317 H   0  0  0  0  0  0  0  0  0  0  0  0
  -16.8258   21.6416  -25.2565 H   0  0  0  0  0  0  0  0  0  0  0  0
  -17.3369   19.2371  -25.9666 H   0  0  0  0  0  0  0  0  0  0  0  0
  -18.7227   20.3770  -25.6811 H   0  0  0  0  0  0  0  0  0  0  0  0
  -23.0230   15.4641  -28.7437 H   0  0  0  0  0  0  0  0  0  0  0  0
  -24.1670   15.6398  -30.9411 H   0  0  0  0  0  0  0  0  0  0  0  0
  -23.2406   17.1331  -32.6920 H   0  0  0  0  0  0  0  0  0  0  0  0
  -20.0743   18.2291  -30.1034 H   0  0  0  0  0  0  0  0  0  0  0  0
  -21.4874   17.1693  -25.6038 H   0  0  0  0  0  0  0  0  0  0  0  0
  -21.5818   16.7727  -23.1287 H   0  0  0  0  0  0  0  0  0  0  0  0
  1  2  1  0
  2  3  1  0
  2  4  1  0
  2  5  1  0
  5  6  2  0
  6  7  1  0
  7  8  2  0
  8  9  1  0
  9 10  1  0
 10 11  2  0
 10 12  1  0
 12 13  2  0
 13 14  1  0
 14 15  1  0
 15 16  2  0
  9 17  1  0
 17 18  1  0
 18 19  2  0
 18 20  1  0
 20 21  1  0
 21 22  1  0
 22 23  1  0
 23 24  1  0
 24 25  1  0
 25 26  1  0
 17 27  1  0
 27 28  2  0
 28 29  1  0
 29 30  2  0
 30 31  1  0
 31 32  2  0
  8 33  1  0
 33 34  2  0
 34  5  1  0
 16 12  1  0
 26 21  1  0
 32 27  1  0
  1 35  1  0
  1 36  1  0
  1 37  1  0
  3 38  1  0
  3 39  1  0
  3 40  1  0
  4 41  1  0
  4 42  1  0
  4 43  1  0
  6 44  1  0
  7 45  1  0
 13 46  1  0
 14 47  1  0
 15 48  1  0
 17 49  1  0
 20 50  1  0
 21 51  1  0
 22 52  1  0
 22 53  1  0
 23 54  1  0
 23 55  1  0
 24 56  1  0
 24 57  1  0
 25 58  1  0
 25 59  1  0
 26 60  1  0
 26 61  1  0
 28 62  1  0
 29 63  1  0
 30 64  1  0
 32 65  1  0
 33 66  1  0
 34 67  1  0
M  END
>  <meeko>  (3) 
{"free_energy": -9.257, "intermolecular_energy": -11.643, "internal_energy": -2.451}

$$$$

     RDKit          3D

 67 70  0  0  0  0  0  0  0  0999 V2000
  -25.7890   16.2470  -31.8230 C   0  0  0  0  0  0  0  0  0  0  0  0
  -24.6940   17.2410  -32.2230 C   0  0  0  0  0  0  0  0  0  0  0  0
  -24.2990   16.9550  -33.6880 C   0  0  0  0  0  0  0  0  0  0  0  0
  -25.2360   18.6660  -32.1540 C   0  0  0  0  0  0  0  0  0  0  0  0
  -23.5050   17.0730  -31.2070 C   0  0  0  0  0  0  0  0  0  0  0  0
  -23.5770   17.6730  -29.9440 C   0  0  0  0  0  0  0  0  0  0  0  0
  -22.5230   17.5230  -29.0340 C   0  0  0  0  0  0  0  0  0  0  0  0
  -21.4090   16.7570  -29.3930 C   0  0  0  0  0  0  0  0  0  0  0  0
  -20.3130   16.6210  -28.4050 N   0  0  0  0  0  0  0  0  0  0  0  0
  -19.4970   17.7520  -27.9430 C   0  0  0  0  0  0  0  0  0  0  0  0
  -18.6220   18.1120  -28.6510 O   0  0  0  0  0  0  0  0  0  0  0  0
  -19.7580   18.4470  -26.5870 C   0  0  0  0  0  0  0  0  0  0  0  0
  -20.8180   19.2540  -26.2210 C   0  0  0  0  0  0  0  0  0  0  0  0
  -20.6470   19.6080  -24.9520 N   0  0  0  0  0  0  0  0  0  0  0  0
  -19.5160   19.0460  -24.5300 C   0  0  0  0  0  0  0  0  0  0  0  0
  -18.9770   18.3280  -25.5350 N   0  0  0  0  0  0  0  0  0  0  0  0
  -20.1700   15.3420  -27.7750 C   0  0  0  0  0  0  0  0  0  0  0  0
  -20.5240   15.5040  -26.2670 C   0  0  0  0  0  0  0  0  0  0  0  0
  -21.4650   16.1650  -25.9100 O   0  0  0  0  0  0  0  0  0  0  0  0
  -19.6860   14.7700  -25.3030 N   0  0  0  0  0  0  0  0  0  0  0  0
  -19.9030   14.8090  -23.8770 C   0  0  0  0  0  0  0  0  0  0  0  0
  -20.7990   13.6200  -23.5400 C   0  0  0  0  0  0  0  0  0  0  0  0
  -21.0170   13.4790  -22.0350 C   0  0  0  0  0  0  0  0  0  0  0  0
  -19.6950   13.2780  -21.3520 C   0  0  0  0  0  0  0  0  0  0  0  0
  -18.6720   14.3410  -21.6900 C   0  0  0  0  0  0  0  0  0  0  0  0
  -18.5350   14.6570  -23.1880 C   0  0  0  0  0  0  0  0  0  0  0  0
  -21.0940   14.2370  -28.1940 C   0  0  0  0  0  0  0  0  0  0  0  0
  -20.7380   13.4780  -29.2520 C   0  0  0  0  0  0  0  0  0  0  0  0
  -21.5500   12.4360  -29.6230 C   0  0  0  0  0  0  0  0  0  0  0  0
  -22.7070   12.1840  -28.9110 C   0  0  0  0  0  0  0  0  0  0  0  0
  -23.0390   12.9450  -27.8560 N   0  0  0  0  0  0  0  0  0  0  0  0
  -22.2470   13.9830  -27.5030 C   0  0  0  0  0  0  0  0  0  0  0  0
  -21.3260   16.1660  -30.6390 C   0  0  0  0  0  0  0  0  0  0  0  0
  -22.3840   16.3170  -31.5520 C   0  0  0  0  0  0  0  0  0  0  0  0
  -25.8506   16.1911  -30.7261 H   0  0  0  0  0  0  0  0  0  0  0  0
  -26.7550   16.5831  -32.2278 H   0  0  0  0  0  0  0  0  0  0  0  0
  -25.5476   15.2531  -32.2278 H   0  0  0  0  0  0  0  0  0  0  0  0
  -23.4082   16.3100  -33.7083 H   0  0  0  0  0  0  0  0  0  0  0  0
  -25.1304   16.4481  -34.1997 H   0  0  0  0  0  0  0  0  0  0  0  0
  -24.0770   17.9031  -34.1997 H   0  0  0  0  0  0  0  0  0  0  0  0
  -25.3495   18.9645  -31.1014 H   0  0  0  0  0  0  0  0  0  0  0  0
  -24.5351   19.3496  -32.6554 H   0  0  0  0  0  0  0  0  0  0  0  0
  -26.2140   18.7110  -32.6554 H   0  0  0  0  0  0  0  0  0  0  0  0
  -24.4627   18.2631  -29.6660 H   0  0  0  0  0  0  0  0  0  0  0  0
  -22.5708   18.0034  -28.0456 H   0  0  0  0  0  0  0  0  0  0  0  0
  -21.6569   19.5514  -26.8674 H   0  0  0  0  0  0  0  0  0  0  0  0
  -21.2742   20.2072  -24.3965 H   0  0  0  0  0  0  0  0  0  0  0  0
  -19.0895   19.1511  -23.5215 H   0  0  0  0  0  0  0  0  0  0  0  0
  -19.1424   15.0587  -28.0466 H   0  0  0  0  0  0  0  0  0  0  0  0
  -19.0370   14.2960  -25.6050 H   0  0  0  0  0  0  0  0  0  0  0  0
  -20.3719   15.7472  -23.5453 H   0  0  0  0  0  0  0  0  0  0  0  0
  -21.7744   13.7600  -24.0289 H   0  0  0  0  0  0  0  0  0  0  0  0
  -20.3024   12.7066  -23.8993 H   0  0  0  0  0  0  0  0  0  0  0  0
  -21.4947   14.3908  -21.6471 H   0  0  0  0  0  0  0  0  0  0  0  0
  -21.6653   12.6122  -21.8391 H   0  0  0  0  0  0  0  0  0  0  0  0
  -19.8602   13.2873  -20.2645 H   0  0  0  0  0  0  0  0  0  0  0  0
  -19.2916   12.3175  -21.7050 H   0  0  0  0  0  0  0  0  0  0  0  0
  -18.9580   15.2674  -21.1705 H   0  0  0  0  0  0  0  0  0  0  0  0
  -17.6978   13.9436  -21.3691 H   0  0  0  0  0  0  0  0  0  0  0  0
  -17.9744   15.5965  -23.3021 H   0  0  0  0  0  0  0  0  0  0  0  0
  -18.0084   13.8166  -23.6639 H   0  0  0  0  0  0  0  0  0  0  0  0
  -19.8127   13.6912  -29.8073 H   0  0  0  0  0  0  0  0  0  0  0  0
  -21.2813   11.8046  -30.4827 H   0  0  0  0  0  0  0  0  0  0  0  0
  -23.3618   11.3526  -29.2112 H   0  0  0  0  0  0  0  0  0  0  0  0
  -22.5312   14.6257  -26.6567 H   0  0  0  0  0  0  0  0  0  0  0  0
  -20.4367   15.5804  -30.9151 H   0  0  0  0  0  0  0  0  0  0  0  0
  -22.3282   15.8381  -32.5407 H   0  0  0  0  0  0  0  0  0  0  0  0
  1  2  1  0
  2  3  1  0
  2  4  1  0
  2  5  1  0
  5  6  2  0
  6  7  1  0
  7  8  2  0
  8  9  1  0
  9 10  1  0
 10 11  2  0
 10 12  1  0
 12 13  2  0
 13 14  1  0
 14 15  1  0
 15 16  2  0
  9 17  1  0
 17 18  1  0
 18 19  2  0
 18 20  1  0
 20 21  1  0
 21 22  1  0
 22 23  1  0
 23 24  1  0
 24 25  1  0
 25 26  1  0
 17 27  1  0
 27 28  2  0
 28 29  1  0
 29 30  2  0
 30 31  1  0
 31 32  2  0
  8 33  1  0
 33 34  2  0
 34  5  1  0
 16 12  1  0
 26 21  1  0
 32 27  1  0
  1 35  1  0
  1 36  1  0
  1 37  1  0
  3 38  1  0
  3 39  1  0
  3 40  1  0
  4 41  1  0
  4 42  1  0
  4 43  1  0
  6 44  1  0
  7 45  1  0
 13 46  1  0
 14 47  1  0
 15 48  1  0
 17 49  1  0
 20 50  1  0
 21 51  1  0
 22 52  1  0
 22 53  1  0
 23 54  1  0
 23 55  1  0
 24 56  1  0
 24 57  1  0
 25 58  1  0
 25 59  1  0
 26 60  1  0
 26 61  1  0
 28 62  1  0
 29 63  1  0
 30 64  1  0
 32 65  1  0
 33 66  1  0
 34 67  1  0
M  END
>  <meeko>  (4) 
{"free_energy": -9.098, "intermolecular_energy": -11.484, "internal_energy": -2.715}

$$$$

     RDKit          3D

 67 70  0  0  0  0  0  0  0  0999 V2000
  -18.2630   22.0880  -25.8340 C   0  0  0  0  0  0  0  0  0  0  0  0
  -17.6870   21.1400  -26.8900 C   0  0  0  0  0  0  0  0  0  0  0  0
  -17.6830   21.8790  -28.2460 C   0  0  0  0  0  0  0  0  0  0  0  0
  -16.2430   20.7920  -26.5430 C   0  0  0  0  0  0  0  0  0  0  0  0
  -18.5660   19.8350  -26.8880 C   0  0  0  0  0  0  0  0  0  0  0  0
  -19.1450   19.3870  -25.6950 C   0  0  0  0  0  0  0  0  0  0  0  0
  -19.9320   18.2280  -25.6880 C   0  0  0  0  0  0  0  0  0  0  0  0
  -20.1430   17.5350  -26.8840 C   0  0  0  0  0  0  0  0  0  0  0  0
  -20.9800   16.3120  -26.8390 N   0  0  0  0  0  0  0  0  0  0  0  0
  -22.3550   16.2930  -26.3240 C   0  0  0  0  0  0  0  0  0  0  0  0
  -22.6750   15.3600  -25.6740 O   0  0  0  0  0  0  0  0  0  0  0  0
  -23.3530   17.4360  -26.6170 C   0  0  0  0  0  0  0  0  0  0  0  0
  -24.3790   17.9120  -25.8220 C   0  0  0  0  0  0  0  0  0  0  0  0
  -24.9600   18.9210  -26.4600 N   0  0  0  0  0  0  0  0  0  0  0  0
  -24.3260   19.0790  -27.6190 C   0  0  0  0  0  0  0  0  0  0  0  0
  -23.3340   18.1700  -27.7090 N   0  0  0  0  0  0  0  0  0  0  0  0
  -20.4480   15.1460  -27.4780 C   0  0  0  0  0  0  0  0  0  0  0  0
  -19.9910   14.1510  -26.3700 C   0  0  0  0  0  0  0  0  0  0  0  0
  -19.3980   13.1390  -26.6400 O   0  0  0  0  0  0  0  0  0  0  0  0
  -20.2730   14.5310  -24.9750 N   0  0  0  0  0  0  0  0  0  0  0  0
  -19.8960   13.7200  -23.8430 C   0  0  0  0  0  0  0  0  0  0  0  0
  -18.6300   14.3440  -23.2630 C   0  0  0  0  0  0  0  0  0  0  0  0
  -18.1830   13.6420  -21.9820 C   0  0  0  0  0  0  0  0  0  0  0  0
  -19.2680   13.7400  -20.9500 C   0  0  0  0  0  0  0  0  0  0  0  0
  -20.6140   13.2480  -21.4390 C   0  0  0  0  0  0  0  0  0  0  0  0
  -21.0400   13.7830  -22.8160 C   0  0  0  0  0  0  0  0  0  0  0  0
  -21.3770   14.2970  -28.2940 C   0  0  0  0  0  0  0  0  0  0  0  0
  -21.5070   14.5780  -29.6070 C   0  0  0  0  0  0  0  0  0  0  0  0
  -22.3210   13.7850  -30.3780 C   0  0  0  0  0  0  0  0  0  0  0  0
  -22.9840   12.7200  -29.7990 C   0  0  0  0  0  0  0  0  0  0  0  0
  -22.8350   12.4520  -28.4910 N   0  0  0  0  0  0  0  0  0  0  0  0
  -22.0480   13.2450  -27.7310 C   0  0  0  0  0  0  0  0  0  0  0  0
  -19.5710   17.9650  -28.0650 C   0  0  0  0  0  0  0  0  0  0  0  0
  -18.7810   19.1290  -28.0710 C   0  0  0  0  0  0  0  0  0  0  0  0
  -18.0296   21.7038  -24.8300 H   0  0  0  0  0  0  0  0  0  0  0  0
  -17.8190   23.0869  -25.9568 H   0  0  0  0  0  0  0  0  0  0  0  0
  -19.3541   22.1541  -25.9568 H   0  0  0  0  0  0  0  0  0  0  0  0
  -17.6771   22.9651  -28.0717 H   0  0  0  0  0  0  0  0  0  0  0  0
  -16.7864   21.5943  -28.8161 H   0  0  0  0  0  0  0  0  0  0  0  0
  -18.5826   21.6040  -28.8161 H   0  0  0  0  0  0  0  0  0  0  0  0
  -16.1253   20.7636  -25.4497 H   0  0  0  0  0  0  0  0  0  0  0  0
  -15.9916   19.8076  -26.9645 H   0  0  0  0  0  0  0  0  0  0  0  0
  -15.5708   21.5539  -26.9645 H   0  0  0  0  0  0  0  0  0  0  0  0
  -18.9819   19.9457  -24.7616 H   0  0  0  0  0  0  0  0  0  0  0  0
  -20.3797   17.8666  -24.7505 H   0  0  0  0  0  0  0  0  0  0  0  0
  -24.6642   17.5227  -24.8335 H   0  0  0  0  0  0  0  0  0  0  0  0
  -25.7559   19.4793  -26.1199 H   0  0  0  0  0  0  0  0  0  0  0  0
  -24.5720   19.8316  -28.3826 H   0  0  0  0  0  0  0  0  0  0  0  0
  -19.6866   15.5724  -28.1477 H   0  0  0  0  0  0  0  0  0  0  0  0
  -20.6830   15.2720  -24.8290 H   0  0  0  0  0  0  0  0  0  0  0  0
  -19.7142   12.6700  -24.1158 H   0  0  0  0  0  0  0  0  0  0  0  0
  -17.8241   14.2708  -24.0081 H   0  0  0  0  0  0  0  0  0  0  0  0
  -18.8495   15.3935  -23.0173 H   0  0  0  0  0  0  0  0  0  0  0  0
  -17.9771   12.5831  -22.1974 H   0  0  0  0  0  0  0  0  0  0  0  0
  -17.2709   14.1240  -21.6003 H   0  0  0  0  0  0  0  0  0  0  0  0
  -18.9736   13.1385  -20.0773 H   0  0  0  0  0  0  0  0  0  0  0  0
  -19.3837   14.8056  -20.7029 H   0  0  0  0  0  0  0  0  0  0  0  0
  -20.5758   12.1502  -21.4963 H   0  0  0  0  0  0  0  0  0  0  0  0
  -21.3579   13.6221  -20.7202 H   0  0  0  0  0  0  0  0  0  0  0  0
  -21.8818   13.1791  -23.1858 H   0  0  0  0  0  0  0  0  0  0  0  0
  -21.3272   14.8379  -22.6945 H   0  0  0  0  0  0  0  0  0  0  0  0
  -20.9699   15.4282  -30.0527 H   0  0  0  0  0  0  0  0  0  0  0  0
  -22.4445   13.9965  -31.4504 H   0  0  0  0  0  0  0  0  0  0  0  0
  -23.6395   12.0861  -30.4143 H   0  0  0  0  0  0  0  0  0  0  0  0
  -21.9460   13.0442  -26.6543 H   0  0  0  0  0  0  0  0  0  0  0  0
  -19.7321   17.4008  -28.9954 H   0  0  0  0  0  0  0  0  0  0  0  0
  -18.3320   19.4829  -29.0108 H   0  0  0  0  0  0  0  0  0  0  0  0
  1  2  1  0
  2  3  1  0
  2  4  1  0
  2  5  1  0
  5  6  2  0
  6  7  1  0
  7  8  2  0
  8  9  1  0
  9 10  1  0
 10 11  2  0
 10 12  1  0
 12 13  2  0
 13 14  1  0
 14 15  1  0
 15 16  2  0
  9 17  1  0
 17 18  1  0
 18 19  2  0
 18 20  1  0
 20 21  1  0
 21 22  1  0
 22 23  1  0
 23 24  1  0
 24 25  1  0
 25 26  1  0
 17 27  1  0
 27 28  2  0
 28 29  1  0
 29 30  2  0
 30 31  1  0
 31 32  2  0
  8 33  1  0
 33 34  2  0
 34  5  1  0
 16 12  1  0
 26 21  1  0
 32 27  1  0
  1 35  1  0
  1 36  1  0
  1 37  1  0
  3 38  1  0
  3 39  1  0
  3 40  1  0
  4 41  1  0
  4 42  1  0
  4 43  1  0
  6 44  1  0
  7 45  1  0
 13 46  1  0
 14 47  1  0
 15 48  1  0
 17 49  1  0
 20 50  1  0
 21 51  1  0
 22 52  1  0
 22 53  1  0
 23 54  1  0
 23 55  1  0
 24 56  1  0
 24 57  1  0
 25 58  1  0
 25 59  1  0
 26 60  1  0
 26 61  1  0
 28 62  1  0
 29 63  1  0
 30 64  1  0
 32 65  1  0
 33 66  1  0
 34 67  1  0
M  END
>  <meeko>  (5) 
{"free_energy": -9.057, "intermolecular_energy": -11.443, "internal_energy": -3.273}

$$$$

     RDKit          3D

 67 70  0  0  0  0  0  0  0  0999 V2000
  -19.4430   13.3780  -28.7790 C   0  0  0  0  0  0  0  0  0  0  0  0
  -20.8030   14.0820  -28.7210 C   0  0  0  0  0  0  0  0  0  0  0  0
  -21.6270   13.6350  -29.9470 C   0  0  0  0  0  0  0  0  0  0  0  0
  -21.5570   13.6500  -27.4670 C   0  0  0  0  0  0  0  0  0  0  0  0
  -20.5340   15.6310  -28.6750 C   0  0  0  0  0  0  0  0  0  0  0  0
  -21.6000   16.5170  -28.4730 C   0  0  0  0  0  0  0  0  0  0  0  0
  -21.3650   17.8980  -28.4260 C   0  0  0  0  0  0  0  0  0  0  0  0
  -20.0600   18.3780  -28.5680 C   0  0  0  0  0  0  0  0  0  0  0  0
  -19.8500   19.8440  -28.5150 N   0  0  0  0  0  0  0  0  0  0  0  0
  -19.9870   20.7220  -29.6840 C   0  0  0  0  0  0  0  0  0  0  0  0
  -19.7530   21.8700  -29.5270 O   0  0  0  0  0  0  0  0  0  0  0  0
  -20.4220   20.1820  -31.0650 C   0  0  0  0  0  0  0  0  0  0  0  0
  -20.0580   20.6300  -32.3210 C   0  0  0  0  0  0  0  0  0  0  0  0
  -20.6480   19.8530  -33.2220 N   0  0  0  0  0  0  0  0  0  0  0  0
  -21.3620   18.9450  -32.5600 C   0  0  0  0  0  0  0  0  0  0  0  0
  -21.2150   19.1460  -31.2350 N   0  0  0  0  0  0  0  0  0  0  0  0
  -19.6590   20.4190  -27.2160 C   0  0  0  0  0  0  0  0  0  0  0  0
  -19.4400   19.2600  -26.2000 C   0  0  0  0  0  0  0  0  0  0  0  0
  -18.3360   18.9340  -25.8470 O   0  0  0  0  0  0  0  0  0  0  0  0
  -20.6460   18.6160  -25.6520 N   0  0  0  0  0  0  0  0  0  0  0  0
  -20.6010   17.5420  -24.6910 C   0  0  0  0  0  0  0  0  0  0  0  0
  -22.0210   16.9900  -24.5870 C   0  0  0  0  0  0  0  0  0  0  0  0
  -22.0920   15.7650  -23.6780 C   0  0  0  0  0  0  0  0  0  0  0  0
  -21.2070   14.6820  -24.2220 C   0  0  0  0  0  0  0  0  0  0  0  0
  -19.7840   15.1330  -24.4740 C   0  0  0  0  0  0  0  0  0  0  0  0
  -19.6490   16.4620  -25.2340 C   0  0  0  0  0  0  0  0  0  0  0  0
  -18.4430   21.2670  -26.9870 C   0  0  0  0  0  0  0  0  0  0  0  0
  -18.5040   22.2230  -26.0370 C   0  0  0  0  0  0  0  0  0  0  0  0
  -17.3870   22.9790  -25.7840 C   0  0  0  0  0  0  0  0  0  0  0  0
  -16.2290   22.7480  -26.5010 C   0  0  0  0  0  0  0  0  0  0  0  0
  -16.1860   21.7860  -27.4380 N   0  0  0  0  0  0  0  0  0  0  0  0
  -17.2920   21.0550  -27.6980 C   0  0  0  0  0  0  0  0  0  0  0  0
  -19.0030   17.5120  -28.7730 C   0  0  0  0  0  0  0  0  0  0  0  0
  -19.2390   16.1260  -28.8200 C   0  0  0  0  0  0  0  0  0  0  0  0
  -19.0828   13.1915  -27.7565 H   0  0  0  0  0  0  0  0  0  0  0  0
  -19.5479   12.4210  -29.3111 H   0  0  0  0  0  0  0  0  0  0  0  0
  -18.7222   14.0162  -29.3111 H   0  0  0  0  0  0  0  0  0  0  0  0
  -22.5469   13.1360  -29.6083 H   0  0  0  0  0  0  0  0  0  0  0  0
  -21.8890   14.5147  -30.5532 H   0  0  0  0  0  0  0  0  0  0  0  0
  -21.0324   12.9358  -30.5532 H   0  0  0  0  0  0  0  0  0  0  0  0
  -20.9986   13.9699  -26.5749 H   0  0  0  0  0  0  0  0  0  0  0  0
  -22.5545   14.1136  -27.4610 H   0  0  0  0  0  0  0  0  0  0  0  0
  -21.6615   12.5550  -27.4610 H   0  0  0  0  0  0  0  0  0  0  0  0
  -22.6220   16.1288  -28.3512 H   0  0  0  0  0  0  0  0  0  0  0  0
  -22.2005   18.5981  -28.2786 H   0  0  0  0  0  0  0  0  0  0  0  0
  -19.3955   21.4812  -32.5365 H   0  0  0  0  0  0  0  0  0  0  0  0
  -20.5679   19.9374  -34.2454 H   0  0  0  0  0  0  0  0  0  0  0  0
  -21.9746   18.1561  -33.0209 H   0  0  0  0  0  0  0  0  0  0  0  0
  -20.5517   21.0523  -27.1058 H   0  0  0  0  0  0  0  0  0  0  0  0
  -21.4140   18.8940  -25.9200 H   0  0  0  0  0  0  0  0  0  0  0  0
  -20.2457   17.8725  -23.7038 H   0  0  0  0  0  0  0  0  0  0  0  0
  -22.6778   17.7730  -24.1801 H   0  0  0  0  0  0  0  0  0  0  0  0
  -22.3424   16.6857  -25.5940 H   0  0  0  0  0  0  0  0  0  0  0  0
  -21.7557   16.0393  -22.6672 H   0  0  0  0  0  0  0  0  0  0  0  0
  -23.1294   15.4017  -23.6352 H   0  0  0  0  0  0  0  0  0  0  0  0
  -21.1865   13.8534  -23.4988 H   0  0  0  0  0  0  0  0  0  0  0  0
  -21.6266   14.3791  -25.1927 H   0  0  0  0  0  0  0  0  0  0  0  0
  -19.2838   15.2442  -23.5006 H   0  0  0  0  0  0  0  0  0  0  0  0
  -19.3268   14.3646  -25.1147 H   0  0  0  0  0  0  0  0  0  0  0  0
  -18.6139   16.8215  -25.1377 H   0  0  0  0  0  0  0  0  0  0  0  0
  -19.9128   16.2775  -26.2858 H   0  0  0  0  0  0  0  0  0  0  0  0
  -19.4338   22.3937  -25.4745 H   0  0  0  0  0  0  0  0  0  0  0  0
  -17.4136   23.7646  -25.0145 H   0  0  0  0  0  0  0  0  0  0  0  0
  -15.3345   23.3568  -26.3031 H   0  0  0  0  0  0  0  0  0  0  0  0
  -17.2678   20.2861  -28.4843 H   0  0  0  0  0  0  0  0  0  0  0  0
  -17.9830   17.9041  -28.8987 H   0  0  0  0  0  0  0  0  0  0  0  0
  -18.3997   15.4313  -28.9715 H   0  0  0  0  0  0  0  0  0  0  0  0
  1  2  1  0
  2  3  1  0
  2  4  1  0
  2  5  1  0
  5  6  2  0
  6  7  1  0
  7  8  2  0
  8  9  1  0
  9 10  1  0
 10 11  2  0
 10 12  1  0
 12 13  2  0
 13 14  1  0
 14 15  1  0
 15 16  2  0
  9 17  1  0
 17 18  1  0
 18 19  2  0
 18 20  1  0
 20 21  1  0
 21 22  1  0
 22 23  1  0
 23 24  1  0
 24 25  1  0
 25 26  1  0
 17 27  1  0
 27 28  2  0
 28 29  1  0
 29 30  2  0
 30 31  1  0
 31 32  2  0
  8 33  1  0
 33 34  2  0
 34  5  1  0
 16 12  1  0
 26 21  1  0
 32 27  1  0
  1 35  1  0
  1 36  1  0
  1 37  1  0
  3 38  1  0
  3 39  1  0
  3 40  1  0
  4 41  1  0
  4 42  1  0
  4 43  1  0
  6 44  1  0
  7 45  1  0
 13 46  1  0
 14 47  1  0
 15 48  1  0
 17 49  1  0
 20 50  1  0
 21 51  1  0
 22 52  1  0
 22 53  1  0
 23 54  1  0
 23 55  1  0
 24 56  1  0
 24 57  1  0
 25 58  1  0
 25 59  1  0
 26 60  1  0
 26 61  1  0
 28 62  1  0
 29 63  1  0
 30 64  1  0
 32 65  1  0
 33 66  1  0
 34 67  1  0
M  END
>  <meeko>  (6) 
{"free_energy": -8.909, "intermolecular_energy": -11.295, "internal_energy": -3.309}

$$$$

     RDKit          3D

 67 70  0  0  0  0  0  0  0  0999 V2000
  -21.1410   18.4020  -30.9010 C   0  0  0  0  0  0  0  0  0  0  0  0
  -22.1440   17.3580  -30.4000 C   0  0  0  0  0  0  0  0  0  0  0  0
  -23.5660   17.9230  -30.6020 C   0  0  0  0  0  0  0  0  0  0  0  0
  -22.0240   16.0830  -31.2300 C   0  0  0  0  0  0  0  0  0  0  0  0
  -21.7980   17.0500  -28.8970 C   0  0  0  0  0  0  0  0  0  0  0  0
  -20.4760   16.7680  -28.5300 C   0  0  0  0  0  0  0  0  0  0  0  0
  -20.1620   16.4970  -27.1920 C   0  0  0  0  0  0  0  0  0  0  0  0
  -21.1750   16.5260  -26.2290 C   0  0  0  0  0  0  0  0  0  0  0  0
  -20.8060   16.2330  -24.8240 N   0  0  0  0  0  0  0  0  0  0  0  0
  -20.4170   17.2680  -23.8580 C   0  0  0  0  0  0  0  0  0  0  0  0
  -20.5850   17.0290  -22.7130 O   0  0  0  0  0  0  0  0  0  0  0  0
  -19.8160   18.6200  -24.3070 C   0  0  0  0  0  0  0  0  0  0  0  0
  -19.9730   19.8680  -23.7340 C   0  0  0  0  0  0  0  0  0  0  0  0
  -19.2530   20.7360  -24.4350 N   0  0  0  0  0  0  0  0  0  0  0  0
  -18.6610   20.0620  -25.4180 C   0  0  0  0  0  0  0  0  0  0  0  0
  -19.0030   18.7610  -25.3320 N   0  0  0  0  0  0  0  0  0  0  0  0
  -21.0000   14.8850  -24.3760 C   0  0  0  0  0  0  0  0  0  0  0  0
  -20.7810   13.9350  -25.5900 C   0  0  0  0  0  0  0  0  0  0  0  0
  -19.7610   13.3080  -25.7210 O   0  0  0  0  0  0  0  0  0  0  0  0
  -21.8970   13.8000  -26.5420 N   0  0  0  0  0  0  0  0  0  0  0  0
  -21.8470   12.9450  -27.7020 C   0  0  0  0  0  0  0  0  0  0  0  0
  -23.1250   13.2110  -28.4940 C   0  0  0  0  0  0  0  0  0  0  0  0
  -23.1460   12.4450  -29.8160 C   0  0  0  0  0  0  0  0  0  0  0  0
  -21.9770   12.8630  -30.6590 C   0  0  0  0  0  0  0  0  0  0  0  0
  -20.6460   12.7490  -29.9470 C   0  0  0  0  0  0  0  0  0  0  0  0
  -20.6140   13.3460  -28.5310 C   0  0  0  0  0  0  0  0  0  0  0  0
  -20.0400   14.3270  -23.3670 C   0  0  0  0  0  0  0  0  0  0  0  0
  -18.7600   14.7550  -23.4030 C   0  0  0  0  0  0  0  0  0  0  0  0
  -17.8790   14.2880  -22.4620 C   0  0  0  0  0  0  0  0  0  0  0  0
  -18.3150   13.3960  -21.5000 C   0  0  0  0  0  0  0  0  0  0  0  0
  -19.5940   12.9900  -21.4760 N   0  0  0  0  0  0  0  0  0  0  0  0
  -20.4570   13.4370  -22.4160 C   0  0  0  0  0  0  0  0  0  0  0  0
  -22.4830   16.7970  -26.5820 C   0  0  0  0  0  0  0  0  0  0  0  0
  -22.7980   17.0690  -27.9260 C   0  0  0  0  0  0  0  0  0  0  0  0
  -20.6660   18.8964  -30.0408 H   0  0  0  0  0  0  0  0  0  0  0  0
  -20.3707   17.9073  -31.5109 H   0  0  0  0  0  0  0  0  0  0  0  0
  -21.6661   19.1518  -31.5109 H   0  0  0  0  0  0  0  0  0  0  0  0
  -24.0300   18.1073  -29.6218 H   0  0  0  0  0  0  0  0  0  0  0  0
  -23.5091   18.8668  -31.1641 H   0  0  0  0  0  0  0  0  0  0  0  0
  -24.1724   17.1975  -31.1641 H   0  0  0  0  0  0  0  0  0  0  0  0
  -21.9423   15.2151  -30.5591 H   0  0  0  0  0  0  0  0  0  0  0  0
  -22.9158   15.9733  -31.8646 H   0  0  0  0  0  0  0  0  0  0  0  0
  -21.1274   16.1416  -31.8646 H   0  0  0  0  0  0  0  0  0  0  0  0
  -19.6837   16.7593  -29.2931 H   0  0  0  0  0  0  0  0  0  0  0  0
  -19.1271   16.2634  -26.9015 H   0  0  0  0  0  0  0  0  0  0  0  0
  -20.5870   20.1013  -22.8516 H   0  0  0  0  0  0  0  0  0  0  0  0
  -19.1682   21.7460  -24.2515 H   0  0  0  0  0  0  0  0  0  0  0  0
  -17.9978   20.4975  -26.1799 H   0  0  0  0  0  0  0  0  0  0  0  0
  -21.9991   14.9306  -23.9181 H   0  0  0  0  0  0  0  0  0  0  0  0
  -22.6130   14.2530  -26.3980 H   0  0  0  0  0  0  0  0  0  0  0  0
  -21.7739   11.8792  -27.4397 H   0  0  0  0  0  0  0  0  0  0  0  0
  -23.9895   12.9000  -27.8890 H   0  0  0  0  0  0  0  0  0  0  0  0
  -23.1669   14.2862  -28.7223 H   0  0  0  0  0  0  0  0  0  0  0  0
  -23.0845   11.3654  -29.6145 H   0  0  0  0  0  0  0  0  0  0  0  0
  -24.0806   12.6671  -30.3519 H   0  0  0  0  0  0  0  0  0  0  0  0
  -21.9482   12.2251  -31.5547 H   0  0  0  0  0  0  0  0  0  0  0  0
  -22.1208   13.9250  -30.9068 H   0  0  0  0  0  0  0  0  0  0  0  0
  -20.3885   11.6821  -29.8735 H   0  0  0  0  0  0  0  0  0  0  0  0
  -19.9277   13.3314  -30.5427 H   0  0  0  0  0  0  0  0  0  0  0  0
  -19.7099   12.9886  -28.0164 H   0  0  0  0  0  0  0  0  0  0  0  0
  -20.6139   14.4418  -28.6269 H   0  0  0  0  0  0  0  0  0  0  0  0
  -18.4296   15.4663  -24.1742 H   0  0  0  0  0  0  0  0  0  0  0  0
  -16.8308   14.6213  -22.4724 H   0  0  0  0  0  0  0  0  0  0  0  0
  -17.6078   13.0159  -20.7480 H   0  0  0  0  0  0  0  0  0  0  0  0
  -21.4986   13.0834  -22.4158 H   0  0  0  0  0  0  0  0  0  0  0  0
  -23.2733   16.8001  -25.8169 H   0  0  0  0  0  0  0  0  0  0  0  0
  -23.8356   17.2971  -28.2112 H   0  0  0  0  0  0  0  0  0  0  0  0
  1  2  1  0
  2  3  1  0
  2  4  1  0
  2  5  1  0
  5  6  2  0
  6  7  1  0
  7  8  2  0
  8  9  1  0
  9 10  1  0
 10 11  2  0
 10 12  1  0
 12 13  2  0
 13 14  1  0
 14 15  1  0
 15 16  2  0
  9 17  1  0
 17 18  1  0
 18 19  2  0
 18 20  1  0
 20 21  1  0
 21 22  1  0
 22 23  1  0
 23 24  1  0
 24 25  1  0
 25 26  1  0
 17 27  1  0
 27 28  2  0
 28 29  1  0
 29 30  2  0
 30 31  1  0
 31 32  2  0
  8 33  1  0
 33 34  2  0
 34  5  1  0
 16 12  1  0
 26 21  1  0
 32 27  1  0
  1 35  1  0
  1 36  1  0
  1 37  1  0
  3 38  1  0
  3 39  1  0
  3 40  1  0
  4 41  1  0
  4 42  1  0
  4 43  1  0
  6 44  1  0
  7 45  1  0
 13 46  1  0
 14 47  1  0
 15 48  1  0
 17 49  1  0
 20 50  1  0
 21 51  1  0
 22 52  1  0
 22 53  1  0
 23 54  1  0
 23 55  1  0
 24 56  1  0
 24 57  1  0
 25 58  1  0
 25 59  1  0
 26 60  1  0
 26 61  1  0
 28 62  1  0
 29 63  1  0
 30 64  1  0
 32 65  1  0
 33 66  1  0
 34 67  1  0
M  END
>  <meeko>  (7) 
{"free_energy": -8.503, "intermolecular_energy": -10.889, "internal_energy": -3.16}

$$$$

     RDKit          3D

 67 70  0  0  0  0  0  0  0  0999 V2000
  -22.0030   16.2330  -31.3840 C   0  0  0  0  0  0  0  0  0  0  0  0
  -22.1180   17.5610  -30.6290 C   0  0  0  0  0  0  0  0  0  0  0  0
  -21.2530   18.6070  -31.3640 C   0  0  0  0  0  0  0  0  0  0  0  0
  -23.5640   18.0480  -30.6550 C   0  0  0  0  0  0  0  0  0  0  0  0
  -21.6680   17.3040  -29.1430 C   0  0  0  0  0  0  0  0  0  0  0  0
  -22.6030   17.4060  -28.1050 C   0  0  0  0  0  0  0  0  0  0  0  0
  -22.2080   17.1740  -26.7810 C   0  0  0  0  0  0  0  0  0  0  0  0
  -20.8810   16.8270  -26.5110 C   0  0  0  0  0  0  0  0  0  0  0  0
  -20.4990   16.5910  -25.0980 N   0  0  0  0  0  0  0  0  0  0  0  0
  -19.9310   17.6300  -24.2300 C   0  0  0  0  0  0  0  0  0  0  0  0
  -19.0070   18.2370  -24.6480 O   0  0  0  0  0  0  0  0  0  0  0  0
  -20.5040   17.9240  -22.8250 C   0  0  0  0  0  0  0  0  0  0  0  0
  -20.0880   18.8650  -21.9020 C   0  0  0  0  0  0  0  0  0  0  0  0
  -20.8860   18.7850  -20.8440 N   0  0  0  0  0  0  0  0  0  0  0  0
  -21.7760   17.8260  -21.0870 C   0  0  0  0  0  0  0  0  0  0  0  0
  -21.5430   17.3040  -22.3080 N   0  0  0  0  0  0  0  0  0  0  0  0
  -20.8590   15.3210  -24.5390 C   0  0  0  0  0  0  0  0  0  0  0  0
  -20.7230   14.2440  -25.6550 C   0  0  0  0  0  0  0  0  0  0  0  0
  -19.7880   13.4850  -25.6840 O   0  0  0  0  0  0  0  0  0  0  0  0
  -21.8130   14.1620  -26.6420 N   0  0  0  0  0  0  0  0  0  0  0  0
  -21.8330   13.2050  -27.7210 C   0  0  0  0  0  0  0  0  0  0  0  0
  -23.1000   13.4830  -28.5260 C   0  0  0  0  0  0  0  0  0  0  0  0
  -23.1880   12.6050  -29.7720 C   0  0  0  0  0  0  0  0  0  0  0  0
  -22.0040   12.8670  -30.6570 C   0  0  0  0  0  0  0  0  0  0  0  0
  -20.6740   12.7280  -29.9450 C   0  0  0  0  0  0  0  0  0  0  0  0
  -20.5860   13.4470  -28.5890 C   0  0  0  0  0  0  0  0  0  0  0  0
  -19.9960   14.7540  -23.4520 C   0  0  0  0  0  0  0  0  0  0  0  0
  -20.6040   14.1740  -22.3950 C   0  0  0  0  0  0  0  0  0  0  0  0
  -19.8290   13.6130  -21.4110 C   0  0  0  0  0  0  0  0  0  0  0  0
  -18.4520   13.6480  -21.5220 C   0  0  0  0  0  0  0  0  0  0  0  0
  -17.8670   14.2220  -22.5850 N   0  0  0  0  0  0  0  0  0  0  0  0
  -18.6310   14.7920  -23.5440 C   0  0  0  0  0  0  0  0  0  0  0  0
  -19.9510   16.7300  -27.5280 C   0  0  0  0  0  0  0  0  0  0  0  0
  -20.3470   16.9630  -28.8570 C   0  0  0  0  0  0  0  0  0  0  0  0
  -21.9314   15.4059  -30.6623 H   0  0  0  0  0  0  0  0  0  0  0  0
  -22.8923   16.0923  -32.0159 H   0  0  0  0  0  0  0  0  0  0  0  0
  -21.1027   16.2472  -32.0159 H   0  0  0  0  0  0  0  0  0  0  0  0
  -20.7328   19.2360  -30.6266 H   0  0  0  0  0  0  0  0  0  0  0  0
  -20.5127   18.0928  -31.9946 H   0  0  0  0  0  0  0  0  0  0  0  0
  -21.8970   19.2376  -31.9946 H   0  0  0  0  0  0  0  0  0  0  0  0
  -23.9282   18.1707  -29.6243 H   0  0  0  0  0  0  0  0  0  0  0  0
  -23.6164   19.0134  -31.1797 H   0  0  0  0  0  0  0  0  0  0  0  0
  -24.1897   17.3110  -31.1797 H   0  0  0  0  0  0  0  0  0  0  0  0
  -23.6474   17.6683  -28.3294 H   0  0  0  0  0  0  0  0  0  0  0  0
  -22.9357   17.2641  -25.9611 H   0  0  0  0  0  0  0  0  0  0  0  0
  -19.2432   19.5590  -22.0229 H   0  0  0  0  0  0  0  0  0  0  0  0
  -20.8270   19.3598  -19.9914 H   0  0  0  0  0  0  0  0  0  0  0  0
  -22.5751   17.5094  -20.4005 H   0  0  0  0  0  0  0  0  0  0  0  0
  -21.8570   15.5219  -24.1222 H   0  0  0  0  0  0  0  0  0  0  0  0
  -22.4690   14.7130  -26.5710 H   0  0  0  0  0  0  0  0  0  0  0  0
  -21.8273   12.1643  -27.3646 H   0  0  0  0  0  0  0  0  0  0  0  0
  -23.9756   13.2862  -27.8899 H   0  0  0  0  0  0  0  0  0  0  0  0
  -23.0734   14.5336  -28.8509 H   0  0  0  0  0  0  0  0  0  0  0  0
  -23.1952   11.5462  -29.4740 H   0  0  0  0  0  0  0  0  0  0  0  0
  -24.1126   12.8395  -30.3197 H   0  0  0  0  0  0  0  0  0  0  0  0
  -22.0283   12.1512  -31.4919 H   0  0  0  0  0  0  0  0  0  0  0  0
  -22.0803   13.9098  -30.9987 H   0  0  0  0  0  0  0  0  0  0  0  0
  -20.4872   11.6572  -29.7764 H   0  0  0  0  0  0  0  0  0  0  0  0
  -19.9254   13.2042  -30.5952 H   0  0  0  0  0  0  0  0  0  0  0  0
  -19.7015   13.0780  -28.0491 H   0  0  0  0  0  0  0  0  0  0  0  0
  -20.5144   14.5273  -28.7836 H   0  0  0  0  0  0  0  0  0  0  0  0
  -21.7015   14.1515  -22.3238 H   0  0  0  0  0  0  0  0  0  0  0  0
  -20.3015   13.1380  -20.5386 H   0  0  0  0  0  0  0  0  0  0  0  0
  -17.8299   13.2015  -20.7323 H   0  0  0  0  0  0  0  0  0  0  0  0
  -18.1535   15.2883  -24.4017 H   0  0  0  0  0  0  0  0  0  0  0  0
  -18.9064   16.4719  -27.2994 H   0  0  0  0  0  0  0  0  0  0  0  0
  -19.6134   16.8761  -29.6720 H   0  0  0  0  0  0  0  0  0  0  0  0
  1  2  1  0
  2  3  1  0
  2  4  1  0
  2  5  1  0
  5  6  2  0
  6  7  1  0
  7  8  2  0
  8  9  1  0
  9 10  1  0
 10 11  2  0
 10 12  1  0
 12 13  2  0
 13 14  1  0
 14 15  1  0
 15 16  2  0
  9 17  1  0
 17 18  1  0
 18 19  2  0
 18 20  1  0
 20 21  1  0
 21 22  1  0
 22 23  1  0
 23 24  1  0
 24 25  1  0
 25 26  1  0
 17 27  1  0
 27 28  2  0
 28 29  1  0
 29 30  2  0
 30 31  1  0
 31 32  2  0
  8 33  1  0
 33 34  2  0
 34  5  1  0
 16 12  1  0
 26 21  1  0
 32 27  1  0
  1 35  1  0
  1 36  1  0
  1 37  1  0
  3 38  1  0
  3 39  1  0
  3 40  1  0
  4 41  1  0
  4 42  1  0
  4 43  1  0
  6 44  1  0
  7 45  1  0
 13 46  1  0
 14 47  1  0
 15 48  1  0
 17 49  1  0
 20 50  1  0
 21 51  1  0
 22 52  1  0
 22 53  1  0
 23 54  1  0
 23 55  1  0
 24 56  1  0
 24 57  1  0
 25 58  1  0
 25 59  1  0
 26 60  1  0
 26 61  1  0
 28 62  1  0
 29 63  1  0
 30 64  1  0
 32 65  1  0
 33 66  1  0
 34 67  1  0
M  END
>  <meeko>  (8) 
{"free_energy": -8.413, "intermolecular_energy": -10.8, "internal_energy": -3.266}

$$$$

     RDKit          3D

 67 70  0  0  0  0  0  0  0  0999 V2000
  -16.7500   22.1440  -28.0080 C   0  0  0  0  0  0  0  0  0  0  0  0
  -17.0720   21.7850  -26.5540 C   0  0  0  0  0  0  0  0  0  0  0  0
  -15.7400   21.5120  -25.8220 C   0  0  0  0  0  0  0  0  0  0  0  0
  -17.7500   22.9660  -25.8660 C   0  0  0  0  0  0  0  0  0  0  0  0
  -18.0440   20.5480  -26.5730 C   0  0  0  0  0  0  0  0  0  0  0  0
  -18.0630   19.6940  -27.6830 C   0  0  0  0  0  0  0  0  0  0  0  0
  -18.9240   18.5890  -27.7030 C   0  0  0  0  0  0  0  0  0  0  0  0
  -19.7490   18.3410  -26.6020 C   0  0  0  0  0  0  0  0  0  0  0  0
  -20.6480   17.1640  -26.6590 N   0  0  0  0  0  0  0  0  0  0  0  0
  -22.1130   17.2650  -26.6450 C   0  0  0  0  0  0  0  0  0  0  0  0
  -22.6620   17.0070  -25.6310 O   0  0  0  0  0  0  0  0  0  0  0  0
  -22.9150   17.6840  -27.8980 C   0  0  0  0  0  0  0  0  0  0  0  0
  -23.9280   18.6190  -28.0020 C   0  0  0  0  0  0  0  0  0  0  0  0
  -24.3080   18.6740  -29.2730 N   0  0  0  0  0  0  0  0  0  0  0  0
  -23.5630   17.8040  -29.9510 C   0  0  0  0  0  0  0  0  0  0  0  0
  -22.7030   17.2030  -29.1040 N   0  0  0  0  0  0  0  0  0  0  0  0
  -20.0290   15.8940  -26.8960 C   0  0  0  0  0  0  0  0  0  0  0  0
  -19.9110   15.1500  -25.5330 C   0  0  0  0  0  0  0  0  0  0  0  0
  -19.3780   14.0740  -25.4480 O   0  0  0  0  0  0  0  0  0  0  0  0
  -20.4360   15.8460  -24.3450 N   0  0  0  0  0  0  0  0  0  0  0  0
  -20.3820   15.2910  -23.0150 C   0  0  0  0  0  0  0  0  0  0  0  0
  -21.2560   14.0400  -23.0300 C   0  0  0  0  0  0  0  0  0  0  0  0
  -21.1980   13.2880  -21.7020 C   0  0  0  0  0  0  0  0  0  0  0  0
  -19.7840   12.8680  -21.4220 C   0  0  0  0  0  0  0  0  0  0  0  0
  -18.7910   14.0100  -21.4850 C   0  0  0  0  0  0  0  0  0  0  0  0
  -18.9190   14.9160  -22.7190 C   0  0  0  0  0  0  0  0  0  0  0  0
  -20.7640   14.8910  -27.7340 C   0  0  0  0  0  0  0  0  0  0  0  0
  -21.7820   14.2100  -27.1660 C   0  0  0  0  0  0  0  0  0  0  0  0
  -22.4930   13.3200  -27.9300 C   0  0  0  0  0  0  0  0  0  0  0  0
  -22.1590   13.1400  -29.2590 C   0  0  0  0  0  0  0  0  0  0  0  0
  -21.1480   13.8330  -29.8080 N   0  0  0  0  0  0  0  0  0  0  0  0
  -20.4370   14.6960  -29.0490 C   0  0  0  0  0  0  0  0  0  0  0  0
  -19.7420   19.1820  -25.5050 C   0  0  0  0  0  0  0  0  0  0  0  0
  -18.8780   20.2910  -25.4860 C   0  0  0  0  0  0  0  0  0  0  0  0
  -16.0157   22.9627  -28.0295 H   0  0  0  0  0  0  0  0  0  0  0  0
  -16.3330   21.2638  -28.5193 H   0  0  0  0  0  0  0  0  0  0  0  0
  -17.6702   22.4632  -28.5193 H   0  0  0  0  0  0  0  0  0  0  0  0
  -15.9053   21.5459  -24.7350 H   0  0  0  0  0  0  0  0  0  0  0  0
  -15.3633   20.5180  -26.1048 H   0  0  0  0  0  0  0  0  0  0  0  0
  -15.0026   22.2777  -26.1048 H   0  0  0  0  0  0  0  0  0  0  0  0
  -17.6801   22.8442  -24.7750 H   0  0  0  0  0  0  0  0  0  0  0  0
  -17.2504   23.8998  -26.1635 H   0  0  0  0  0  0  0  0  0  0  0  0
  -18.8083   23.0054  -26.1635 H   0  0  0  0  0  0  0  0  0  0  0  0
  -17.4015   19.8910  -28.5395 H   0  0  0  0  0  0  0  0  0  0  0  0
  -18.9506   17.9223  -28.5775 H   0  0  0  0  0  0  0  0  0  0  0  0
  -24.3461   19.2134  -27.1762 H   0  0  0  0  0  0  0  0  0  0  0  0
  -25.0446   19.2792  -29.6630 H   0  0  0  0  0  0  0  0  0  0  0  0
  -23.6371   17.6067  -31.0306 H   0  0  0  0  0  0  0  0  0  0  0  0
  -19.1054   16.1778  -27.4217 H   0  0  0  0  0  0  0  0  0  0  0  0
  -20.7920   16.6210  -24.4510 H   0  0  0  0  0  0  0  0  0  0  0  0
  -20.7353   15.9952  -22.2473 H   0  0  0  0  0  0  0  0  0  0  0  0
  -22.2972   14.3361  -23.2257 H   0  0  0  0  0  0  0  0  0  0  0  0
  -20.8791   13.3706  -23.8173 H   0  0  0  0  0  0  0  0  0  0  0  0
  -21.5516   13.9449  -20.8936 H   0  0  0  0  0  0  0  0  0  0  0  0
  -21.8393   12.3961  -21.7591 H   0  0  0  0  0  0  0  0  0  0  0  0
  -19.7446   12.4274  -20.4149 H   0  0  0  0  0  0  0  0  0  0  0  0
  -19.4994   12.1482  -22.2036 H   0  0  0  0  0  0  0  0  0  0  0  0
  -18.9301   14.6327  -20.5889 H   0  0  0  0  0  0  0  0  0  0  0  0
  -17.7948   13.5474  -21.5459 H   0  0  0  0  0  0  0  0  0  0  0  0
  -18.3456   15.8380  -22.5427 H   0  0  0  0  0  0  0  0  0  0  0  0
  -18.5299   14.3626  -23.5864 H   0  0  0  0  0  0  0  0  0  0  0  0
  -22.0371   14.3664  -26.1075 H   0  0  0  0  0  0  0  0  0  0  0  0
  -23.3248   12.7524  -27.4872 H   0  0  0  0  0  0  0  0  0  0  0  0
  -22.7256   12.4236  -29.8719 H   0  0  0  0  0  0  0  0  0  0  0  0
  -19.5915   15.2444  -29.4899 H   0  0  0  0  0  0  0  0  0  0  0  0
  -20.4082   18.9848  -24.6522 H   0  0  0  0  0  0  0  0  0  0  0  0
  -18.8601   20.9576  -24.6111 H   0  0  0  0  0  0  0  0  0  0  0  0
  1  2  1  0
  2  3  1  0
  2  4  1  0
  2  5  1  0
  5  6  2  0
  6  7  1  0
  7  8  2  0
  8  9  1  0
  9 10  1  0
 10 11  2  0
 10 12  1  0
 12 13  2  0
 13 14  1  0
 14 15  1  0
 15 16  2  0
  9 17  1  0
 17 18  1  0
 18 19  2  0
 18 20  1  0
 20 21  1  0
 21 22  1  0
 22 23  1  0
 23 24  1  0
 24 25  1  0
 25 26  1  0
 17 27  1  0
 27 28  2  0
 28 29  1  0
 29 30  2  0
 30 31  1  0
 31 32  2  0
  8 33  1  0
 33 34  2  0
 34  5  1  0
 16 12  1  0
 26 21  1  0
 32 27  1  0
  1 35  1  0
  1 36  1  0
  1 37  1  0
  3 38  1  0
  3 39  1  0
  3 40  1  0
  4 41  1  0
  4 42  1  0
  4 43  1  0
  6 44  1  0
  7 45  1  0
 13 46  1  0
 14 47  1  0
 15 48  1  0
 17 49  1  0
 20 50  1  0
 21 51  1  0
 22 52  1  0
 22 53  1  0
 23 54  1  0
 23 55  1  0
 24 56  1  0
 24 57  1  0
 25 58  1  0
 25 59  1  0
 26 60  1  0
 26 61  1  0
 28 62  1  0
 29 63  1  0
 30 64  1  0
 32 65  1  0
 33 66  1  0
 34 67  1  0
M  END
>  <meeko>  (9) 
{"free_energy": -8.27, "intermolecular_energy": -10.656, "internal_energy": -3.416}

$$$$

