
     RDKit          3D

 67 70  0  0  0  0  0  0  0  0999 V2000
  -18.4060   22.2180  -25.9080 C   0  0  0  0  0  0  0  0  0  0  0  0
  -17.8250   21.2570  -26.9500 C   0  0  0  0  0  0  0  0  0  0  0  0
  -17.8320   21.9720  -28.3180 C   0  0  0  0  0  0  0  0  0  0  0  0
  -16.3770   20.9260  -26.6020 C   0  0  0  0  0  0  0  0  0  0  0  0
  -18.6930   19.9450  -26.9230 C   0  0  0  0  0  0  0  0  0  0  0  0
  -19.0070   19.3420  -25.6980 C   0  0  0  0  0  0  0  0  0  0  0  0
  -19.7830   18.1760  -25.6690 C   0  0  0  0  0  0  0  0  0  0  0  0
  -20.2500   17.6320  -26.8680 C   0  0  0  0  0  0  0  0  0  0  0  0
  -21.0670   16.3970  -26.7980 N   0  0  0  0  0  0  0  0  0  0  0  0
  -22.4310   16.3600  -26.2550 C   0  0  0  0  0  0  0  0  0  0  0  0
  -23.2750   15.9020  -26.9440 O   0  0  0  0  0  0  0  0  0  0  0  0
  -22.7640   16.8990  -24.8450 C   0  0  0  0  0  0  0  0  0  0  0  0
  -23.3230   18.1130  -24.4940 C   0  0  0  0  0  0  0  0  0  0  0  0
  -23.4560   18.1390  -23.1730 N   0  0  0  0  0  0  0  0  0  0  0  0
  -22.9960   16.9820  -22.7030 C   0  0  0  0  0  0  0  0  0  0  0  0
  -22.5790   16.2200  -23.7330 N   0  0  0  0  0  0  0  0  0  0  0  0
  -20.5310   15.2340  -27.4410 C   0  0  0  0  0  0  0  0  0  0  0  0
  -20.0520   14.2470  -26.3360 C   0  0  0  0  0  0  0  0  0  0  0  0
  -19.3820   13.2820  -26.6030 O   0  0  0  0  0  0  0  0  0  0  0  0
  -20.4140   14.5740  -24.9460 N   0  0  0  0  0  0  0  0  0  0  0  0
  -20.0270   13.7640  -23.8170 C   0  0  0  0  0  0  0  0  0  0  0  0
  -18.7180   14.3460  -23.2910 C   0  0  0  0  0  0  0  0  0  0  0  0
  -18.2530   13.6440  -22.0170 C   0  0  0  0  0  0  0  0  0  0  0  0
  -19.2960   13.7970  -20.9480 C   0  0  0  0  0  0  0  0  0  0  0  0
  -20.6770   13.3510  -21.3830 C   0  0  0  0  0  0  0  0  0  0  0  0
  -21.1300   13.8850  -22.7510 C   0  0  0  0  0  0  0  0  0  0  0  0
  -21.4610   14.3750  -28.2450 C   0  0  0  0  0  0  0  0  0  0  0  0
  -21.6630   14.6950  -29.5400 C   0  0  0  0  0  0  0  0  0  0  0  0
  -22.4780   13.8950  -30.3010 C   0  0  0  0  0  0  0  0  0  0  0  0
  -23.0690   12.7830  -29.7330 C   0  0  0  0  0  0  0  0  0  0  0  0
  -22.8480   12.4760  -28.4440 N   0  0  0  0  0  0  0  0  0  0  0  0
  -22.0600   13.2760  -27.6910 C   0  0  0  0  0  0  0  0  0  0  0  0
  -19.9410   18.2150  -28.0820 C   0  0  0  0  0  0  0  0  0  0  0  0
  -19.1620   19.3860  -28.1110 C   0  0  0  0  0  0  0  0  0  0  0  0
  -18.1801   21.8443  -24.8984 H   0  0  0  0  0  0  0  0  0  0  0  0
  -17.9589   23.2145  -26.0387 H   0  0  0  0  0  0  0  0  0  0  0  0
  -19.4961   22.2852  -26.0387 H   0  0  0  0  0  0  0  0  0  0  0  0
  -17.8427   23.0609  -28.1625 H   0  0  0  0  0  0  0  0  0  0  0  0
  -16.9311   21.6911  -28.8832 H   0  0  0  0  0  0  0  0  0  0  0  0
  -18.7273   21.6735  -28.8832 H   0  0  0  0  0  0  0  0  0  0  0  0
  -16.2596   20.8992  -25.5086 H   0  0  0  0  0  0  0  0  0  0  0  0
  -16.1138   19.9445  -27.0232 H   0  0  0  0  0  0  0  0  0  0  0  0
  -15.7135   21.6956  -27.0232 H   0  0  0  0  0  0  0  0  0  0  0  0
  -18.6440   19.7843  -24.7585 H   0  0  0  0  0  0  0  0  0  0  0  0
  -20.0226   17.6929  -24.7102 H   0  0  0  0  0  0  0  0  0  0  0  0
  -23.6081   18.9175  -25.1878 H   0  0  0  0  0  0  0  0  0  0  0  0
  -23.8440   18.9127  -22.6146 H   0  0  0  0  0  0  0  0  0  0  0  0
  -22.9617   16.6936  -21.6420 H   0  0  0  0  0  0  0  0  0  0  0  0
  -19.7813   15.6654  -28.1206 H   0  0  0  0  0  0  0  0  0  0  0  0
  -20.8780   15.2820  -24.8020 H   0  0  0  0  0  0  0  0  0  0  0  0
  -19.8949   12.7044  -24.0812 H   0  0  0  0  0  0  0  0  0  0  0  0
  -17.9427   14.2319  -24.0629 H   0  0  0  0  0  0  0  0  0  0  0  0
  -18.8881   15.4064  -23.0529 H   0  0  0  0  0  0  0  0  0  0  0  0
  -18.0956   12.5753  -22.2246 H   0  0  0  0  0  0  0  0  0  0  0  0
  -17.3102   14.0955  -21.6746 H   0  0  0  0  0  0  0  0  0  0  0  0
  -18.9938   13.1955  -20.0780 H   0  0  0  0  0  0  0  0  0  0  0  0
  -19.3618   14.8692  -20.7112 H   0  0  0  0  0  0  0  0  0  0  0  0
  -20.6829   12.2519  -21.4265 H   0  0  0  0  0  0  0  0  0  0  0  0
  -21.3803   13.7620  -20.6438 H   0  0  0  0  0  0  0  0  0  0  0  0
  -22.0075   13.3105  -23.0825 H   0  0  0  0  0  0  0  0  0  0  0  0
  -21.3706   14.9520  -22.6340 H   0  0  0  0  0  0  0  0  0  0  0  0
  -21.1826   15.5821  -29.9784 H   0  0  0  0  0  0  0  0  0  0  0  0
  -22.6598   14.1381  -31.3583 H   0  0  0  0  0  0  0  0  0  0  0  0
  -23.7259   12.1438  -30.3412 H   0  0  0  0  0  0  0  0  0  0  0  0
  -21.8995   13.0426  -26.6281 H   0  0  0  0  0  0  0  0  0  0  0  0
  -20.3017   17.7665  -29.0194 H   0  0  0  0  0  0  0  0  0  0  0  0
  -18.9223   19.8618  -29.0734 H   0  0  0  0  0  0  0  0  0  0  0  0
  1  2  1  0
  2  3  1  0
  2  4  1  0
  2  5  1  0
  5  6  2  0
  6  7  1  0
  7  8  2  0
  8  9  1  0
  9 10  1  0
 10 11  2  0
 10 12  1  0
 12 13  2  0
 13 14  1  0
 14 15  1  0
 15 16  2  0
  9 17  1  0
 17 18  1  0
 18 19  2  0
 18 20  1  0
 20 21  1  0
 21 22  1  0
 22 23  1  0
 23 24  1  0
 24 25  1  0
 25 26  1  0
 17 27  1  0
 27 28  2  0
 28 29  1  0
 29 30  2  0
 30 31  1  0
 31 32  2  0
  8 33  1  0
 33 34  2  0
 34  5  1  0
 16 12  1  0
 26 21  1  0
 32 27  1  0
  1 35  1  0
  1 36  1  0
  1 37  1  0
  3 38  1  0
  3 39  1  0
  3 40  1  0
  4 41  1  0
  4 42  1  0
  4 43  1  0
  6 44  1  0
  7 45  1  0
 13 46  1  0
 14 47  1  0
 15 48  1  0
 17 49  1  0
 20 50  1  0
 21 51  1  0
 22 52  1  0
 22 53  1  0
 23 54  1  0
 23 55  1  0
 24 56  1  0
 24 57  1  0
 25 58  1  0
 25 59  1  0
 26 60  1  0
 26 61  1  0
 28 62  1  0
 29 63  1  0
 30 64  1  0
 32 65  1  0
 33 66  1  0
 34 67  1  0
M  END
>  <meeko>  (1) 
{"free_energy": -9.295, "intermolecular_energy": -11.681, "internal_energy": -3.343}

$$$$

     RDKit          3D

 67 70  0  0  0  0  0  0  0  0999 V2000
  -16.8040   22.2430  -28.4530 C   0  0  0  0  0  0  0  0  0  0  0  0
  -17.2800   21.8270  -27.0570 C   0  0  0  0  0  0  0  0  0  0  0  0
  -16.0360   21.5220  -26.1970 C   0  0  0  0  0  0  0  0  0  0  0  0
  -18.0310   22.9820  -26.4000 C   0  0  0  0  0  0  0  0  0  0  0  0
  -18.2430   20.5950  -27.2300 C   0  0  0  0  0  0  0  0  0  0  0  0
  -19.0200   20.4760  -28.3900 C   0  0  0  0  0  0  0  0  0  0  0  0
  -19.8750   19.3780  -28.5510 C   0  0  0  0  0  0  0  0  0  0  0  0
  -19.9340   18.4010  -27.5530 C   0  0  0  0  0  0  0  0  0  0  0  0
  -20.8520   17.2550  -27.7560 N   0  0  0  0  0  0  0  0  0  0  0  0
  -22.1160   17.3540  -28.4970 C   0  0  0  0  0  0  0  0  0  0  0  0
  -23.0650   17.7230  -27.8980 O   0  0  0  0  0  0  0  0  0  0  0  0
  -22.2160   16.9890  -29.9960 C   0  0  0  0  0  0  0  0  0  0  0  0
  -21.7980   17.7210  -31.0920 C   0  0  0  0  0  0  0  0  0  0  0  0
  -22.0570   17.0100  -32.1830 N   0  0  0  0  0  0  0  0  0  0  0  0
  -22.6180   15.8690  -31.7930 C   0  0  0  0  0  0  0  0  0  0  0  0
  -22.7080   15.8560  -30.4480 N   0  0  0  0  0  0  0  0  0  0  0  0
  -20.3790   15.9700  -27.3330 C   0  0  0  0  0  0  0  0  0  0  0  0
  -20.6510   15.8330  -25.8060 C   0  0  0  0  0  0  0  0  0  0  0  0
  -21.6870   16.2030  -25.3160 O   0  0  0  0  0  0  0  0  0  0  0  0
  -19.6050   15.1840  -24.9970 N   0  0  0  0  0  0  0  0  0  0  0  0
  -19.7220   14.9720  -23.5750 C   0  0  0  0  0  0  0  0  0  0  0  0
  -20.8630   13.9790  -23.3750 C   0  0  0  0  0  0  0  0  0  0  0  0
  -21.0210   13.5790  -21.9100 C   0  0  0  0  0  0  0  0  0  0  0  0
  -19.7530   12.9400  -21.4220 C   0  0  0  0  0  0  0  0  0  0  0  0
  -18.5200   13.7850  -21.6610 C   0  0  0  0  0  0  0  0  0  0  0  0
  -18.3960   14.3690  -23.0770 C   0  0  0  0  0  0  0  0  0  0  0  0
  -21.0570   14.7490  -27.8800 C   0  0  0  0  0  0  0  0  0  0  0  0
  -20.4650   14.0980  -28.9040 C   0  0  0  0  0  0  0  0  0  0  0  0
  -21.0490   12.9550  -29.3890 C   0  0  0  0  0  0  0  0  0  0  0  0
  -22.2220   12.4930  -28.8220 C   0  0  0  0  0  0  0  0  0  0  0  0
  -22.7900   13.1500  -27.7980 N   0  0  0  0  0  0  0  0  0  0  0  0
  -22.2230   14.2860  -27.3340 C   0  0  0  0  0  0  0  0  0  0  0  0
  -19.1760   18.5130  -26.4030 C   0  0  0  0  0  0  0  0  0  0  0  0
  -18.3180   19.6150  -26.2410 C   0  0  0  0  0  0  0  0  0  0  0  0
  -15.9788   22.9642  -28.3592 H   0  0  0  0  0  0  0  0  0  0  0  0
  -16.4548   21.3554  -29.0009 H   0  0  0  0  0  0  0  0  0  0  0  0
  -17.6368   22.7080  -29.0009 H   0  0  0  0  0  0  0  0  0  0  0  0
  -16.3018   21.5872  -25.1316 H   0  0  0  0  0  0  0  0  0  0  0  0
  -15.6735   20.5084  -26.4231 H   0  0  0  0  0  0  0  0  0  0  0  0
  -15.2457   22.2530  -26.4231 H   0  0  0  0  0  0  0  0  0  0  0  0
  -17.9681   22.8852  -25.3061 H   0  0  0  0  0  0  0  0  0  0  0  0
  -17.5801   23.9362  -26.7102 H   0  0  0  0  0  0  0  0  0  0  0  0
  -19.0861   22.9570  -26.7102 H   0  0  0  0  0  0  0  0  0  0  0  0
  -18.9586   21.2448  -29.1743 H   0  0  0  0  0  0  0  0  0  0  0  0
  -20.4947   19.2854  -29.4551 H   0  0  0  0  0  0  0  0  0  0  0  0
  -21.3326   18.7173  -31.0648 H   0  0  0  0  0  0  0  0  0  0  0  0
  -21.8595   17.2908  -33.1541 H   0  0  0  0  0  0  0  0  0  0  0  0
  -22.9552   15.0635  -32.4619 H   0  0  0  0  0  0  0  0  0  0  0  0
  -19.3361   15.9759  -27.6827 H   0  0  0  0  0  0  0  0  0  0  0  0
  -18.8890   14.9190  -25.3930 H   0  0  0  0  0  0  0  0  0  0  0  0
  -19.9241   15.9020  -23.0234 H   0  0  0  0  0  0  0  0  0  0  0  0
  -21.8000   14.4400  -23.7206 H   0  0  0  0  0  0  0  0  0  0  0  0
  -20.6301   13.0721  -23.9523 H   0  0  0  0  0  0  0  0  0  0  0  0
  -21.2352   14.4740  -21.3074 H   0  0  0  0  0  0  0  0  0  0  0  0
  -21.8507   12.8631  -21.8146 H   0  0  0  0  0  0  0  0  0  0  0  0
  -19.8475   12.7600  -20.3409 H   0  0  0  0  0  0  0  0  0  0  0  0
  -19.6212   12.0075  -21.9903 H   0  0  0  0  0  0  0  0  0  0  0  0
  -18.5365   14.6218  -20.9472 H   0  0  0  0  0  0  0  0  0  0  0  0
  -17.6581   13.1144  -21.5290 H   0  0  0  0  0  0  0  0  0  0  0  0
  -17.6290   15.1575  -23.0692 H   0  0  0  0  0  0  0  0  0  0  0  0
  -18.1207   13.5498  -23.7575 H   0  0  0  0  0  0  0  0  0  0  0  0
  -19.5301   14.4776  -29.3421 H   0  0  0  0  0  0  0  0  0  0  0  0
  -20.5863   12.4093  -30.2245 H   0  0  0  0  0  0  0  0  0  0  0  0
  -22.6940   11.5796  -29.2130 H   0  0  0  0  0  0  0  0  0  0  0  0
  -22.7014   14.8409  -26.5135 H   0  0  0  0  0  0  0  0  0  0  0  0
  -19.2435   17.7445  -25.6189 H   0  0  0  0  0  0  0  0  0  0  0  0
  -17.7047   19.7042  -25.3322 H   0  0  0  0  0  0  0  0  0  0  0  0
  1  2  1  0
  2  3  1  0
  2  4  1  0
  2  5  1  0
  5  6  2  0
  6  7  1  0
  7  8  2  0
  8  9  1  0
  9 10  1  0
 10 11  2  0
 10 12  1  0
 12 13  2  0
 13 14  1  0
 14 15  1  0
 15 16  2  0
  9 17  1  0
 17 18  1  0
 18 19  2  0
 18 20  1  0
 20 21  1  0
 21 22  1  0
 22 23  1  0
 23 24  1  0
 24 25  1  0
 25 26  1  0
 17 27  1  0
 27 28  2  0
 28 29  1  0
 29 30  2  0
 30 31  1  0
 31 32  2  0
  8 33  1  0
 33 34  2  0
 34  5  1  0
 16 12  1  0
 26 21  1  0
 32 27  1  0
  1 35  1  0
  1 36  1  0
  1 37  1  0
  3 38  1  0
  3 39  1  0
  3 40  1  0
  4 41  1  0
  4 42  1  0
  4 43  1  0
  6 44  1  0
  7 45  1  0
 13 46  1  0
 14 47  1  0
 15 48  1  0
 17 49  1  0
 20 50  1  0
 21 51  1  0
 22 52  1  0
 22 53  1  0
 23 54  1  0
 23 55  1  0
 24 56  1  0
 24 57  1  0
 25 58  1  0
 25 59  1  0
 26 60  1  0
 26 61  1  0
 28 62  1  0
 29 63  1  0
 30 64  1  0
 32 65  1  0
 33 66  1  0
 34 67  1  0
M  END
>  <meeko>  (2) 
{"free_energy": -9.282, "intermolecular_energy": -11.668, "internal_energy": -2.567}

$$$$

     RDKit          3D

 67 70  0  0  0  0  0  0  0  0999 V2000
  -19.1020   14.1140  -21.3780 C   0  0  0  0  0  0  0  0  0  0  0  0
  -20.5100   14.5470  -21.7960 C   0  0  0  0  0  0  0  0  0  0  0  0
  -21.5040   13.4640  -21.3250 C   0  0  0  0  0  0  0  0  0  0  0  0
  -20.8790   15.8540  -21.1000 C   0  0  0  0  0  0  0  0  0  0  0  0
  -20.5010   14.7560  -23.3550 C   0  0  0  0  0  0  0  0  0  0  0  0
  -20.9290   15.9750  -23.8970 C   0  0  0  0  0  0  0  0  0  0  0  0
  -20.9180   16.1680  -25.2840 C   0  0  0  0  0  0  0  0  0  0  0  0
  -20.4630   15.1410  -26.1170 C   0  0  0  0  0  0  0  0  0  0  0  0
  -20.4670   15.3800  -27.5800 N   0  0  0  0  0  0  0  0  0  0  0  0
  -20.2430   14.3210  -28.5720 C   0  0  0  0  0  0  0  0  0  0  0  0
  -19.1950   14.3050  -29.1180 O   0  0  0  0  0  0  0  0  0  0  0  0
  -21.3260   13.2680  -28.9020 C   0  0  0  0  0  0  0  0  0  0  0  0
  -22.4800   12.9690  -28.2040 C   0  0  0  0  0  0  0  0  0  0  0  0
  -23.1270   12.0180  -28.8670 N   0  0  0  0  0  0  0  0  0  0  0  0
  -22.4080   11.7240  -29.9470 C   0  0  0  0  0  0  0  0  0  0  0  0
  -21.3050   12.4990  -29.9690 N   0  0  0  0  0  0  0  0  0  0  0  0
  -20.8650   16.6850  -28.0170 C   0  0  0  0  0  0  0  0  0  0  0  0
  -19.5800   17.5390  -28.2260 C   0  0  0  0  0  0  0  0  0  0  0  0
  -18.6280   17.1060  -28.8230 O   0  0  0  0  0  0  0  0  0  0  0  0
  -19.6020   18.9170  -27.7060 N   0  0  0  0  0  0  0  0  0  0  0  0
  -18.4940   19.8310  -27.8400 C   0  0  0  0  0  0  0  0  0  0  0  0
  -19.0710   21.1430  -28.3630 C   0  0  0  0  0  0  0  0  0  0  0  0
  -18.0120   22.2400  -28.4450 C   0  0  0  0  0  0  0  0  0  0  0  0
  -17.4410   22.4920  -27.0800 C   0  0  0  0  0  0  0  0  0  0  0  0
  -16.9250   21.2400  -26.4000 C   0  0  0  0  0  0  0  0  0  0  0  0
  -17.8820   20.0380  -26.4430 C   0  0  0  0  0  0  0  0  0  0  0  0
  -21.5430   16.8120  -29.3490 C   0  0  0  0  0  0  0  0  0  0  0  0
  -22.6860   16.1230  -29.5480 C   0  0  0  0  0  0  0  0  0  0  0  0
  -23.3420   16.2610  -30.7450 C   0  0  0  0  0  0  0  0  0  0  0  0
  -22.8260   17.0970  -31.7160 C   0  0  0  0  0  0  0  0  0  0  0  0
  -21.6910   17.7810  -31.4950 N   0  0  0  0  0  0  0  0  0  0  0  0
  -21.0360   17.6300  -30.3220 C   0  0  0  0  0  0  0  0  0  0  0  0
  -20.0440   13.9340  -25.5920 C   0  0  0  0  0  0  0  0  0  0  0  0
  -20.0550   13.7400  -24.1990 C   0  0  0  0  0  0  0  0  0  0  0  0
  -19.0354   14.0935  -20.2802 H   0  0  0  0  0  0  0  0  0  0  0  0
  -18.8935   13.1102  -21.7768 H   0  0  0  0  0  0  0  0  0  0  0  0
  -18.3655   14.8272  -21.7768 H   0  0  0  0  0  0  0  0  0  0  0  0
  -21.5261   13.4399  -20.2255 H   0  0  0  0  0  0  0  0  0  0  0  0
  -22.5088   13.6975  -21.7069 H   0  0  0  0  0  0  0  0  0  0  0  0
  -21.1854   12.4829  -21.7069 H   0  0  0  0  0  0  0  0  0  0  0  0
  -20.8391   15.7128  -20.0098 H   0  0  0  0  0  0  0  0  0  0  0  0
  -20.1676   16.6397  -21.3942 H   0  0  0  0  0  0  0  0  0  0  0  0
  -21.8963   16.1516  -21.3942 H   0  0  0  0  0  0  0  0  0  0  0  0
  -21.2739   16.7810  -23.2326 H   0  0  0  0  0  0  0  0  0  0  0  0
  -21.2643   17.1192  -25.7145 H   0  0  0  0  0  0  0  0  0  0  0  0
  -22.8059   13.4370  -27.2634 H   0  0  0  0  0  0  0  0  0  0  0  0
  -24.0219   11.5867  -28.5950 H   0  0  0  0  0  0  0  0  0  0  0  0
  -22.6715   10.9687  -30.7020 H   0  0  0  0  0  0  0  0  0  0  0  0
  -21.5758   16.9882  -27.2341 H   0  0  0  0  0  0  0  0  0  0  0  0
  -20.3100   19.1900  -27.3030 H   0  0  0  0  0  0  0  0  0  0  0  0
  -17.7170   19.4565  -28.5227 H   0  0  0  0  0  0  0  0  0  0  0  0
  -19.4855   20.9734  -29.3677 H   0  0  0  0  0  0  0  0  0  0  0  0
  -19.8511   21.4749  -27.6621 H   0  0  0  0  0  0  0  0  0  0  0  0
  -17.2080   21.9225  -29.1252 H   0  0  0  0  0  0  0  0  0  0  0  0
  -18.4722   23.1642  -28.8247 H   0  0  0  0  0  0  0  0  0  0  0  0
  -16.6081   23.2040  -27.1770 H   0  0  0  0  0  0  0  0  0  0  0  0
  -18.2565   22.8864  -26.4560 H   0  0  0  0  0  0  0  0  0  0  0  0
  -15.9858   20.9466  -26.8918 H   0  0  0  0  0  0  0  0  0  0  0  0
  -16.7992   21.4959  -25.3376 H   0  0  0  0  0  0  0  0  0  0  0  0
  -17.3252   19.1318  -26.1625 H   0  0  0  0  0  0  0  0  0  0  0  0
  -18.7047   20.2364  -25.7402 H   0  0  0  0  0  0  0  0  0  0  0  0
  -23.0848   15.4622  -28.7642 H   0  0  0  0  0  0  0  0  0  0  0  0
  -24.2748   15.7083  -30.9307 H   0  0  0  0  0  0  0  0  0  0  0  0
  -23.3486   17.2036  -32.6780 H   0  0  0  0  0  0  0  0  0  0  0  0
  -20.0916   18.1669  -30.1490 H   0  0  0  0  0  0  0  0  0  0  0  0
  -19.7036   13.1289  -26.2598 H   0  0  0  0  0  0  0  0  0  0  0  0
  -19.7111   12.7851  -23.7748 H   0  0  0  0  0  0  0  0  0  0  0  0
  1  2  1  0
  2  3  1  0
  2  4  1  0
  2  5  1  0
  5  6  2  0
  6  7  1  0
  7  8  2  0
  8  9  1  0
  9 10  1  0
 10 11  2  0
 10 12  1  0
 12 13  2  0
 13 14  1  0
 14 15  1  0
 15 16  2  0
  9 17  1  0
 17 18  1  0
 18 19  2  0
 18 20  1  0
 20 21  1  0
 21 22  1  0
 22 23  1  0
 23 24  1  0
 24 25  1  0
 25 26  1  0
 17 27  1  0
 27 28  2  0
 28 29  1  0
 29 30  2  0
 30 31  1  0
 31 32  2  0
  8 33  1  0
 33 34  2  0
 34  5  1  0
 16 12  1  0
 26 21  1  0
 32 27  1  0
  1 35  1  0
  1 36  1  0
  1 37  1  0
  3 38  1  0
  3 39  1  0
  3 40  1  0
  4 41  1  0
  4 42  1  0
  4 43  1  0
  6 44  1  0
  7 45  1  0
 13 46  1  0
 14 47  1  0
 15 48  1  0
 17 49  1  0
 20 50  1  0
 21 51  1  0
 22 52  1  0
 22 53  1  0
 23 54  1  0
 23 55  1  0
 24 56  1  0
 24 57  1  0
 25 58  1  0
 25 59  1  0
 26 60  1  0
 26 61  1  0
 28 62  1  0
 29 63  1  0
 30 64  1  0
 32 65  1  0
 33 66  1  0
 34 67  1  0
M  END
>  <meeko>  (3) 
{"free_energy": -9.233, "intermolecular_energy": -11.62, "internal_energy": -2.483}

$$$$

     RDKit          3D

 67 70  0  0  0  0  0  0  0  0999 V2000
  -25.8160   16.6160  -31.6450 C   0  0  0  0  0  0  0  0  0  0  0  0
  -24.5760   17.3270  -32.1960 C   0  0  0  0  0  0  0  0  0  0  0  0
  -24.2510   16.7220  -33.5780 C   0  0  0  0  0  0  0  0  0  0  0  0
  -24.8740   18.8110  -32.3930 C   0  0  0  0  0  0  0  0  0  0  0  0
  -23.4200   17.1510  -31.1440 C   0  0  0  0  0  0  0  0  0  0  0  0
  -22.2840   16.4020  -31.4760 C   0  0  0  0  0  0  0  0  0  0  0  0
  -21.2500   16.2460  -30.5440 C   0  0  0  0  0  0  0  0  0  0  0  0
  -21.3570   16.8560  -29.2900 C   0  0  0  0  0  0  0  0  0  0  0  0
  -20.2440   16.6680  -28.3300 N   0  0  0  0  0  0  0  0  0  0  0  0
  -19.3810   17.7630  -27.8680 C   0  0  0  0  0  0  0  0  0  0  0  0
  -18.4980   18.0920  -28.5810 O   0  0  0  0  0  0  0  0  0  0  0  0
  -19.6050   18.4620  -26.5080 C   0  0  0  0  0  0  0  0  0  0  0  0
  -20.4580   19.5060  -26.2030 C   0  0  0  0  0  0  0  0  0  0  0  0
  -20.3440   19.7650  -24.9060 N   0  0  0  0  0  0  0  0  0  0  0  0
  -19.4490   18.9160  -24.4060 C   0  0  0  0  0  0  0  0  0  0  0  0
  -19.0030   18.1120  -25.3920 N   0  0  0  0  0  0  0  0  0  0  0  0
  -20.1310   15.3750  -27.7230 C   0  0  0  0  0  0  0  0  0  0  0  0
  -20.4570   15.5210  -26.2070 C   0  0  0  0  0  0  0  0  0  0  0  0
  -21.4260   16.1280  -25.8290 O   0  0  0  0  0  0  0  0  0  0  0  0
  -19.5550   14.8420  -25.2610 N   0  0  0  0  0  0  0  0  0  0  0  0
  -19.7390   14.8740  -23.8310 C   0  0  0  0  0  0  0  0  0  0  0  0
  -20.8700   13.8990  -23.5150 C   0  0  0  0  0  0  0  0  0  0  0  0
  -21.0940   13.7520  -22.0120 C   0  0  0  0  0  0  0  0  0  0  0  0
  -19.8400   13.2410  -21.3630 C   0  0  0  0  0  0  0  0  0  0  0  0
  -18.6120   14.0660  -21.6870 C   0  0  0  0  0  0  0  0  0  0  0  0
  -18.4290   14.4000  -23.1760 C   0  0  0  0  0  0  0  0  0  0  0  0
  -21.0930   14.3050  -28.1460 C   0  0  0  0  0  0  0  0  0  0  0  0
  -20.7340   13.4930  -29.1620 C   0  0  0  0  0  0  0  0  0  0  0  0
  -21.5840   12.4820  -29.5340 C   0  0  0  0  0  0  0  0  0  0  0  0
  -22.7800   12.3130  -28.8640 C   0  0  0  0  0  0  0  0  0  0  0  0
  -23.1150   13.1260  -27.8500 N   0  0  0  0  0  0  0  0  0  0  0  0
  -22.2850   14.1330  -27.4970 C   0  0  0  0  0  0  0  0  0  0  0  0
  -22.4760   17.5920  -28.9520 C   0  0  0  0  0  0  0  0  0  0  0  0
  -23.5140   17.7480  -29.8870 C   0  0  0  0  0  0  0  0  0  0  0  0
  -25.7892   16.6314  -30.5454 H   0  0  0  0  0  0  0  0  0  0  0  0
  -26.7214   17.1322  -31.9970 H   0  0  0  0  0  0  0  0  0  0  0  0
  -25.8278   15.5739  -31.9970 H   0  0  0  0  0  0  0  0  0  0  0  0
  -23.7343   15.7601  -33.4448 H   0  0  0  0  0  0  0  0  0  0  0  0
  -25.1847   16.5623  -34.1371 H   0  0  0  0  0  0  0  0  0  0  0  0
  -23.6023   17.4124  -34.1371 H   0  0  0  0  0  0  0  0  0  0  0  0
  -24.9719   19.2987  -31.4119 H   0  0  0  0  0  0  0  0  0  0  0  0
  -24.0518   19.2787  -32.9545 H   0  0  0  0  0  0  0  0  0  0  0  0
  -25.8130   18.9250  -32.9545 H   0  0  0  0  0  0  0  0  0  0  0  0
  -22.2038   15.9360  -32.4692 H   0  0  0  0  0  0  0  0  0  0  0  0
  -20.3614   15.6488  -30.7963 H   0  0  0  0  0  0  0  0  0  0  0  0
  -21.1162   20.0305  -26.9112 H   0  0  0  0  0  0  0  0  0  0  0  0
  -20.8547   20.4902  -24.3824 H   0  0  0  0  0  0  0  0  0  0  0  0
  -19.1249   18.8767  -23.3556 H   0  0  0  0  0  0  0  0  0  0  0  0
  -19.1164   15.0665  -28.0151 H   0  0  0  0  0  0  0  0  0  0  0  0
  -18.8860   14.4060  -25.5780 H   0  0  0  0  0  0  0  0  0  0  0  0
  -19.9855   15.8792  -23.4585 H   0  0  0  0  0  0  0  0  0  0  0  0
  -21.7970   14.2681  -23.9780 H   0  0  0  0  0  0  0  0  0  0  0  0
  -20.5910   12.9132  -23.9153 H   0  0  0  0  0  0  0  0  0  0  0  0
  -21.3552   14.7308  -21.5834 H   0  0  0  0  0  0  0  0  0  0  0  0
  -21.9138   13.0407  -21.8329 H   0  0  0  0  0  0  0  0  0  0  0  0
  -19.9853   13.2465  -20.2726 H   0  0  0  0  0  0  0  0  0  0  0  0
  -19.6622   12.2289  -21.7554 H   0  0  0  0  0  0  0  0  0  0  0  0
  -18.6801   15.0125  -21.1307 H   0  0  0  0  0  0  0  0  0  0  0  0
  -17.7449   13.4528  -21.4004 H   0  0  0  0  0  0  0  0  0  0  0  0
  -17.6771   15.1973  -23.2704 H   0  0  0  0  0  0  0  0  0  0  0  0
  -18.1068   13.4828  -23.6907 H   0  0  0  0  0  0  0  0  0  0  0  0
  -19.7764   13.6389  -29.6832 H   0  0  0  0  0  0  0  0  0  0  0  0
  -21.3143   11.8095  -30.3616 H   0  0  0  0  0  0  0  0  0  0  0  0
  -23.4637   11.5052  -29.1640 H   0  0  0  0  0  0  0  0  0  0  0  0
  -22.5694   14.8173  -26.6841 H   0  0  0  0  0  0  0  0  0  0  0  0
  -22.5544   18.0535  -27.9566 H   0  0  0  0  0  0  0  0  0  0  0  0
  -24.4023   18.3422  -29.6267 H   0  0  0  0  0  0  0  0  0  0  0  0
  1  2  1  0
  2  3  1  0
  2  4  1  0
  2  5  1  0
  5  6  2  0
  6  7  1  0
  7  8  2  0
  8  9  1  0
  9 10  1  0
 10 11  2  0
 10 12  1  0
 12 13  2  0
 13 14  1  0
 14 15  1  0
 15 16  2  0
  9 17  1  0
 17 18  1  0
 18 19  2  0
 18 20  1  0
 20 21  1  0
 21 22  1  0
 22 23  1  0
 23 24  1  0
 24 25  1  0
 25 26  1  0
 17 27  1  0
 27 28  2  0
 28 29  1  0
 29 30  2  0
 30 31  1  0
 31 32  2  0
  8 33  1  0
 33 34  2  0
 34  5  1  0
 16 12  1  0
 26 21  1  0
 32 27  1  0
  1 35  1  0
  1 36  1  0
  1 37  1  0
  3 38  1  0
  3 39  1  0
  3 40  1  0
  4 41  1  0
  4 42  1  0
  4 43  1  0
  6 44  1  0
  7 45  1  0
 13 46  1  0
 14 47  1  0
 15 48  1  0
 17 49  1  0
 20 50  1  0
 21 51  1  0
 22 52  1  0
 22 53  1  0
 23 54  1  0
 23 55  1  0
 24 56  1  0
 24 57  1  0
 25 58  1  0
 25 59  1  0
 26 60  1  0
 26 61  1  0
 28 62  1  0
 29 63  1  0
 30 64  1  0
 32 65  1  0
 33 66  1  0
 34 67  1  0
M  END
>  <meeko>  (4) 
{"free_energy": -9.104, "intermolecular_energy": -11.49, "internal_energy": -2.706}

$$$$

     RDKit          3D

 67 70  0  0  0  0  0  0  0  0999 V2000
  -16.2690   20.7580  -26.5710 C   0  0  0  0  0  0  0  0  0  0  0  0
  -17.7250   21.1740  -26.8010 C   0  0  0  0  0  0  0  0  0  0  0  0
  -18.1230   22.1640  -25.6850 C   0  0  0  0  0  0  0  0  0  0  0  0
  -17.8520   21.9000  -28.1380 C   0  0  0  0  0  0  0  0  0  0  0  0
  -18.5970   19.8650  -26.8200 C   0  0  0  0  0  0  0  0  0  0  0  0
  -19.2970   19.4770  -25.6700 C   0  0  0  0  0  0  0  0  0  0  0  0
  -20.0780   18.3150  -25.6840 C   0  0  0  0  0  0  0  0  0  0  0  0
  -20.1630   17.5570  -26.8560 C   0  0  0  0  0  0  0  0  0  0  0  0
  -20.9980   16.3330  -26.8320 N   0  0  0  0  0  0  0  0  0  0  0  0
  -22.3780   16.3050  -26.3300 C   0  0  0  0  0  0  0  0  0  0  0  0
  -22.7000   15.3670  -25.6880 O   0  0  0  0  0  0  0  0  0  0  0  0
  -23.3780   17.4460  -26.6260 C   0  0  0  0  0  0  0  0  0  0  0  0
  -24.2610   18.0660  -25.7620 C   0  0  0  0  0  0  0  0  0  0  0  0
  -24.9040   19.0110  -26.4380 N   0  0  0  0  0  0  0  0  0  0  0  0
  -24.4450   18.9900  -27.6870 C   0  0  0  0  0  0  0  0  0  0  0  0
  -23.5020   18.0330  -27.7970 N   0  0  0  0  0  0  0  0  0  0  0  0
  -20.4580   15.1750  -27.4810 C   0  0  0  0  0  0  0  0  0  0  0  0
  -20.0000   14.1730  -26.3810 C   0  0  0  0  0  0  0  0  0  0  0  0
  -19.4020   13.1650  -26.6580 O   0  0  0  0  0  0  0  0  0  0  0  0
  -20.2850   14.5400  -24.9830 N   0  0  0  0  0  0  0  0  0  0  0  0
  -19.9060   13.7210  -23.8570 C   0  0  0  0  0  0  0  0  0  0  0  0
  -18.6300   14.3310  -23.2850 C   0  0  0  0  0  0  0  0  0  0  0  0
  -18.1790   13.6200  -22.0110 C   0  0  0  0  0  0  0  0  0  0  0  0
  -19.2550   13.7230  -20.9690 C   0  0  0  0  0  0  0  0  0  0  0  0
  -20.6100   13.2460  -21.4490 C   0  0  0  0  0  0  0  0  0  0  0  0
  -21.0410   13.7910  -22.8200 C   0  0  0  0  0  0  0  0  0  0  0  0
  -21.3820   14.3290  -28.3070 C   0  0  0  0  0  0  0  0  0  0  0  0
  -21.5360   14.6420  -29.6100 C   0  0  0  0  0  0  0  0  0  0  0  0
  -22.3430   13.8530  -30.3900 C   0  0  0  0  0  0  0  0  0  0  0  0
  -22.9770   12.7600  -29.8310 C   0  0  0  0  0  0  0  0  0  0  0  0
  -22.8040   12.4600  -28.5340 N   0  0  0  0  0  0  0  0  0  0  0  0
  -22.0230   13.2490  -27.7630 C   0  0  0  0  0  0  0  0  0  0  0  0
  -19.4720   17.9290  -27.9930 C   0  0  0  0  0  0  0  0  0  0  0  0
  -18.6870   19.0960  -27.9790 C   0  0  0  0  0  0  0  0  0  0  0  0
  -16.0702   20.7012  -25.4906 H   0  0  0  0  0  0  0  0  0  0  0  0
  -16.0923   19.7734  -27.0286 H   0  0  0  0  0  0  0  0  0  0  0  0
  -15.5988   21.5006  -27.0286 H   0  0  0  0  0  0  0  0  0  0  0  0
  -17.9379   21.7036  -24.7033 H   0  0  0  0  0  0  0  0  0  0  0  0
  -17.5240   23.0819  -25.7783 H   0  0  0  0  0  0  0  0  0  0  0  0
  -19.1906   22.4118  -25.7783 H   0  0  0  0  0  0  0  0  0  0  0  0
  -18.0390   22.9690  -27.9584 H   0  0  0  0  0  0  0  0  0  0  0  0
  -16.9195   21.7818  -28.7094 H   0  0  0  0  0  0  0  0  0  0  0  0
  -18.6890   21.4723  -28.7094 H   0  0  0  0  0  0  0  0  0  0  0  0
  -19.2330   20.0855  -24.7559 H   0  0  0  0  0  0  0  0  0  0  0  0
  -20.6205   18.0008  -24.7801 H   0  0  0  0  0  0  0  0  0  0  0  0
  -24.4058   17.8196  -24.6998 H   0  0  0  0  0  0  0  0  0  0  0  0
  -25.6255   19.6440  -26.0643 H   0  0  0  0  0  0  0  0  0  0  0  0
  -24.7818   19.6491  -28.5007 H   0  0  0  0  0  0  0  0  0  0  0  0
  -19.6966   15.6104  -28.1449 H   0  0  0  0  0  0  0  0  0  0  0  0
  -20.6980   15.2780  -24.8310 H   0  0  0  0  0  0  0  0  0  0  0  0
  -19.7362   12.6705  -24.1354 H   0  0  0  0  0  0  0  0  0  0  0  0
  -17.8310   14.2536  -24.0370 H   0  0  0  0  0  0  0  0  0  0  0  0
  -18.8380   15.3814  -23.0332 H   0  0  0  0  0  0  0  0  0  0  0  0
  -17.9842   12.5603  -22.2325 H   0  0  0  0  0  0  0  0  0  0  0  0
  -17.2597   14.0926  -21.6348 H   0  0  0  0  0  0  0  0  0  0  0  0
  -18.9590   13.1144  -20.1018 H   0  0  0  0  0  0  0  0  0  0  0  0
  -19.3586   14.7884  -20.7158 H   0  0  0  0  0  0  0  0  0  0  0  0
  -20.5832   12.1481  -21.5111 H   0  0  0  0  0  0  0  0  0  0  0  0
  -21.3445   13.6239  -20.7226 H   0  0  0  0  0  0  0  0  0  0  0  0
  -21.8918   13.1973  -23.1856 H   0  0  0  0  0  0  0  0  0  0  0  0
  -21.3160   14.8483  -22.6916 H   0  0  0  0  0  0  0  0  0  0  0  0
  -21.0232   15.5151  -30.0399 H   0  0  0  0  0  0  0  0  0  0  0  0
  -22.4846   14.0893  -31.4549 H   0  0  0  0  0  0  0  0  0  0  0  0
  -23.6291   12.1303  -30.4541 H   0  0  0  0  0  0  0  0  0  0  0  0
  -21.9020   13.0221  -26.6935 H   0  0  0  0  0  0  0  0  0  0  0  0
  -19.5354   17.3160  -28.9041 H   0  0  0  0  0  0  0  0  0  0  0  0
  -18.1430   19.4024  -28.8846 H   0  0  0  0  0  0  0  0  0  0  0  0
  1  2  1  0
  2  3  1  0
  2  4  1  0
  2  5  1  0
  5  6  2  0
  6  7  1  0
  7  8  2  0
  8  9  1  0
  9 10  1  0
 10 11  2  0
 10 12  1  0
 12 13  2  0
 13 14  1  0
 14 15  1  0
 15 16  2  0
  9 17  1  0
 17 18  1  0
 18 19  2  0
 18 20  1  0
 20 21  1  0
 21 22  1  0
 22 23  1  0
 23 24  1  0
 24 25  1  0
 25 26  1  0
 17 27  1  0
 27 28  2  0
 28 29  1  0
 29 30  2  0
 30 31  1  0
 31 32  2  0
  8 33  1  0
 33 34  2  0
 34  5  1  0
 16 12  1  0
 26 21  1  0
 32 27  1  0
  1 35  1  0
  1 36  1  0
  1 37  1  0
  3 38  1  0
  3 39  1  0
  3 40  1  0
  4 41  1  0
  4 42  1  0
  4 43  1  0
  6 44  1  0
  7 45  1  0
 13 46  1  0
 14 47  1  0
 15 48  1  0
 17 49  1  0
 20 50  1  0
 21 51  1  0
 22 52  1  0
 22 53  1  0
 23 54  1  0
 23 55  1  0
 24 56  1  0
 24 57  1  0
 25 58  1  0
 25 59  1  0
 26 60  1  0
 26 61  1  0
 28 62  1  0
 29 63  1  0
 30 64  1  0
 32 65  1  0
 33 66  1  0
 34 67  1  0
M  END
>  <meeko>  (5) 
{"free_energy": -9.052, "intermolecular_energy": -11.439, "internal_energy": -3.275}

$$$$

     RDKit          3D

 67 70  0  0  0  0  0  0  0  0999 V2000
  -19.4510   13.3670  -28.8220 C   0  0  0  0  0  0  0  0  0  0  0  0
  -20.8080   14.0720  -28.7290 C   0  0  0  0  0  0  0  0  0  0  0  0
  -21.6550   13.6440  -29.9460 C   0  0  0  0  0  0  0  0  0  0  0  0
  -21.5400   13.6220  -27.4670 C   0  0  0  0  0  0  0  0  0  0  0  0
  -20.5370   15.6200  -28.6640 C   0  0  0  0  0  0  0  0  0  0  0  0
  -21.6010   16.5050  -28.4490 C   0  0  0  0  0  0  0  0  0  0  0  0
  -21.3640   17.8840  -28.3860 C   0  0  0  0  0  0  0  0  0  0  0  0
  -20.0580   18.3640  -28.5250 C   0  0  0  0  0  0  0  0  0  0  0  0
  -19.8450   19.8290  -28.4550 N   0  0  0  0  0  0  0  0  0  0  0  0
  -19.9950   20.7240  -29.6110 C   0  0  0  0  0  0  0  0  0  0  0  0
  -19.7830   21.8730  -29.4350 O   0  0  0  0  0  0  0  0  0  0  0  0
  -20.4160   20.1980  -31.0020 C   0  0  0  0  0  0  0  0  0  0  0  0
  -20.1150   20.7150  -32.2480 C   0  0  0  0  0  0  0  0  0  0  0  0
  -20.6610   19.9240  -33.1640 N   0  0  0  0  0  0  0  0  0  0  0  0
  -21.2870   18.9410  -32.5220 C   0  0  0  0  0  0  0  0  0  0  0  0
  -21.1280   19.1080  -31.1940 N   0  0  0  0  0  0  0  0  0  0  0  0
  -19.6380   20.3870  -27.1520 C   0  0  0  0  0  0  0  0  0  0  0  0
  -19.3840   19.2150  -26.1580 C   0  0  0  0  0  0  0  0  0  0  0  0
  -18.2680   18.9020  -25.8290 O   0  0  0  0  0  0  0  0  0  0  0  0
  -20.5690   18.5420  -25.6020 N   0  0  0  0  0  0  0  0  0  0  0  0
  -20.4910   17.4530  -24.6590 C   0  0  0  0  0  0  0  0  0  0  0  0
  -21.8430   16.7460  -24.6960 C   0  0  0  0  0  0  0  0  0  0  0  0
  -21.8570   15.4960  -23.8190 C   0  0  0  0  0  0  0  0  0  0  0  0
  -20.8110   14.5320  -24.2980 C   0  0  0  0  0  0  0  0  0  0  0  0
  -19.4310   15.1440  -24.4090 C   0  0  0  0  0  0  0  0  0  0  0  0
  -19.3780   16.5000  -25.1300 C   0  0  0  0  0  0  0  0  0  0  0  0
  -18.4310   21.2490  -26.9320 C   0  0  0  0  0  0  0  0  0  0  0  0
  -18.4720   22.1580  -25.9350 C   0  0  0  0  0  0  0  0  0  0  0  0
  -17.3610   22.9260  -25.6930 C   0  0  0  0  0  0  0  0  0  0  0  0
  -16.2280   22.7530  -26.4650 C   0  0  0  0  0  0  0  0  0  0  0  0
  -16.2050   21.8370  -27.4470 N   0  0  0  0  0  0  0  0  0  0  0  0
  -17.3070   21.0940  -27.6960 C   0  0  0  0  0  0  0  0  0  0  0  0
  -19.0030   17.4990  -28.7430 C   0  0  0  0  0  0  0  0  0  0  0  0
  -19.2410   16.1140  -28.8070 C   0  0  0  0  0  0  0  0  0  0  0  0
  -19.0704   13.1692  -27.8091 H   0  0  0  0  0  0  0  0  0  0  0  0
  -19.5682   12.4158  -29.3618 H   0  0  0  0  0  0  0  0  0  0  0  0
  -18.7401   14.0098  -29.3618 H   0  0  0  0  0  0  0  0  0  0  0  0
  -22.5862   13.1735  -29.5974 H   0  0  0  0  0  0  0  0  0  0  0  0
  -21.8963   14.5283  -30.5540 H   0  0  0  0  0  0  0  0  0  0  0  0
  -21.0862   12.9251  -30.5540 H   0  0  0  0  0  0  0  0  0  0  0  0
  -20.9855   13.9629  -26.5802 H   0  0  0  0  0  0  0  0  0  0  0  0
  -22.5513   14.0546  -27.4558 H   0  0  0  0  0  0  0  0  0  0  0  0
  -21.6106   12.5243  -27.4558 H   0  0  0  0  0  0  0  0  0  0  0  0
  -22.6233   16.1169  -28.3296 H   0  0  0  0  0  0  0  0  0  0  0  0
  -22.1982   18.5835  -28.2285 H   0  0  0  0  0  0  0  0  0  0  0  0
  -19.5262   21.6228  -32.4461 H   0  0  0  0  0  0  0  0  0  0  0  0
  -20.6094   20.0486  -34.1851 H   0  0  0  0  0  0  0  0  0  0  0  0
  -21.8455   18.1222  -32.9992 H   0  0  0  0  0  0  0  0  0  0  0  0
  -20.5370   21.0061  -27.0158 H   0  0  0  0  0  0  0  0  0  0  0  0
  -21.3460   18.8110  -25.8520 H   0  0  0  0  0  0  0  0  0  0  0  0
  -20.2659   17.7931  -23.6374 H   0  0  0  0  0  0  0  0  0  0  0  0
  -22.6172   17.4404  -24.3376 H   0  0  0  0  0  0  0  0  0  0  0  0
  -22.0371   16.4363  -25.7335 H   0  0  0  0  0  0  0  0  0  0  0  0
  -21.6453   15.7777  -22.7770 H   0  0  0  0  0  0  0  0  0  0  0  0
  -22.8468   15.0197  -23.8783 H   0  0  0  0  0  0  0  0  0  0  0  0
  -20.7629   13.6908  -23.5909 H   0  0  0  0  0  0  0  0  0  0  0  0
  -21.1049   14.2116  -25.3084 H   0  0  0  0  0  0  0  0  0  0  0  0
  -19.0364   15.2828  -23.3916 H   0  0  0  0  0  0  0  0  0  0  0  0
  -18.8344   14.4486  -25.0177 H   0  0  0  0  0  0  0  0  0  0  0  0
  -18.4029   16.9688  -24.9316 H   0  0  0  0  0  0  0  0  0  0  0  0
  -19.5229   16.3167  -26.2049 H   0  0  0  0  0  0  0  0  0  0  0  0
  -19.3804   22.2810  -25.3270 H   0  0  0  0  0  0  0  0  0  0  0  0
  -17.3722   23.6759  -24.8883 H   0  0  0  0  0  0  0  0  0  0  0  0
  -15.3379   23.3704  -26.2737 H   0  0  0  0  0  0  0  0  0  0  0  0
  -17.2995   20.3616  -28.5167 H   0  0  0  0  0  0  0  0  0  0  0  0
  -17.9826   17.8911  -28.8658 H   0  0  0  0  0  0  0  0  0  0  0  0
  -18.4035   15.4198  -28.9701 H   0  0  0  0  0  0  0  0  0  0  0  0
  1  2  1  0
  2  3  1  0
  2  4  1  0
  2  5  1  0
  5  6  2  0
  6  7  1  0
  7  8  2  0
  8  9  1  0
  9 10  1  0
 10 11  2  0
 10 12  1  0
 12 13  2  0
 13 14  1  0
 14 15  1  0
 15 16  2  0
  9 17  1  0
 17 18  1  0
 18 19  2  0
 18 20  1  0
 20 21  1  0
 21 22  1  0
 22 23  1  0
 23 24  1  0
 24 25  1  0
 25 26  1  0
 17 27  1  0
 27 28  2  0
 28 29  1  0
 29 30  2  0
 30 31  1  0
 31 32  2  0
  8 33  1  0
 33 34  2  0
 34  5  1  0
 16 12  1  0
 26 21  1  0
 32 27  1  0
  1 35  1  0
  1 36  1  0
  1 37  1  0
  3 38  1  0
  3 39  1  0
  3 40  1  0
  4 41  1  0
  4 42  1  0
  4 43  1  0
  6 44  1  0
  7 45  1  0
 13 46  1  0
 14 47  1  0
 15 48  1  0
 17 49  1  0
 20 50  1  0
 21 51  1  0
 22 52  1  0
 22 53  1  0
 23 54  1  0
 23 55  1  0
 24 56  1  0
 24 57  1  0
 25 58  1  0
 25 59  1  0
 26 60  1  0
 26 61  1  0
 28 62  1  0
 29 63  1  0
 30 64  1  0
 32 65  1  0
 33 66  1  0
 34 67  1  0
M  END
>  <meeko>  (6) 
{"free_energy": -8.96, "intermolecular_energy": -11.346, "internal_energy": -3.261}

$$$$

     RDKit          3D

 67 70  0  0  0  0  0  0  0  0999 V2000
  -23.6070   17.8530  -30.4530 C   0  0  0  0  0  0  0  0  0  0  0  0
  -22.1420   17.4030  -30.4290 C   0  0  0  0  0  0  0  0  0  0  0  0
  -22.0040   16.1740  -31.3530 C   0  0  0  0  0  0  0  0  0  0  0  0
  -21.2510   18.5100  -30.9850 C   0  0  0  0  0  0  0  0  0  0  0  0
  -21.7590   17.1110  -28.9320 C   0  0  0  0  0  0  0  0  0  0  0  0
  -22.7380   17.1860  -27.9340 C   0  0  0  0  0  0  0  0  0  0  0  0
  -22.4020   16.9220  -26.6000 C   0  0  0  0  0  0  0  0  0  0  0  0
  -21.0880   16.5700  -26.2790 C   0  0  0  0  0  0  0  0  0  0  0  0
  -20.7680   16.3000  -24.8580 N   0  0  0  0  0  0  0  0  0  0  0  0
  -20.4070   17.3500  -23.8970 C   0  0  0  0  0  0  0  0  0  0  0  0
  -20.5940   17.1230  -22.7520 O   0  0  0  0  0  0  0  0  0  0  0  0
  -19.8100   18.7020  -24.3500 C   0  0  0  0  0  0  0  0  0  0  0  0
  -19.9650   19.9500  -23.7780 C   0  0  0  0  0  0  0  0  0  0  0  0
  -19.2500   20.8190  -24.4830 N   0  0  0  0  0  0  0  0  0  0  0  0
  -18.6620   20.1450  -25.4690 C   0  0  0  0  0  0  0  0  0  0  0  0
  -19.0030   18.8430  -25.3800 N   0  0  0  0  0  0  0  0  0  0  0  0
  -20.9840   14.9610  -24.3940 C   0  0  0  0  0  0  0  0  0  0  0  0
  -20.7800   13.9930  -25.5960 C   0  0  0  0  0  0  0  0  0  0  0  0
  -19.7750   13.3400  -25.7140 O   0  0  0  0  0  0  0  0  0  0  0  0
  -21.8920   13.8740  -26.5540 N   0  0  0  0  0  0  0  0  0  0  0  0
  -21.8560   13.0060  -27.7050 C   0  0  0  0  0  0  0  0  0  0  0  0
  -23.1280   13.2840  -28.5010 C   0  0  0  0  0  0  0  0  0  0  0  0
  -23.1610   12.5050  -29.8140 C   0  0  0  0  0  0  0  0  0  0  0  0
  -21.9850   12.8950  -30.6610 C   0  0  0  0  0  0  0  0  0  0  0  0
  -20.6560   12.7660  -29.9460 C   0  0  0  0  0  0  0  0  0  0  0  0
  -20.6150   13.3780  -28.5370 C   0  0  0  0  0  0  0  0  0  0  0  0
  -20.0340   14.4000  -23.3780 C   0  0  0  0  0  0  0  0  0  0  0  0
  -18.7500   14.8160  -23.4100 C   0  0  0  0  0  0  0  0  0  0  0  0
  -17.8770   14.3460  -22.4620 C   0  0  0  0  0  0  0  0  0  0  0  0
  -18.3250   13.4630  -21.4980 C   0  0  0  0  0  0  0  0  0  0  0  0
  -19.6080   13.0680  -21.4780 N   0  0  0  0  0  0  0  0  0  0  0  0
  -20.4630   13.5180  -22.4240 C   0  0  0  0  0  0  0  0  0  0  0  0
  -20.1130   16.4990  -27.2560 C   0  0  0  0  0  0  0  0  0  0  0  0
  -20.4510   16.7640  -28.5950 C   0  0  0  0  0  0  0  0  0  0  0  0
  -23.9730   17.9654  -29.4218 H   0  0  0  0  0  0  0  0  0  0  0  0
  -23.6860   18.8168  -30.9772 H   0  0  0  0  0  0  0  0  0  0  0  0
  -24.2134   17.0997  -30.9772 H   0  0  0  0  0  0  0  0  0  0  0  0
  -21.9020   15.2652  -30.7416 H   0  0  0  0  0  0  0  0  0  0  0  0
  -22.8984   16.0903  -31.9879 H   0  0  0  0  0  0  0  0  0  0  0  0
  -21.1133   16.2907  -31.9879 H   0  0  0  0  0  0  0  0  0  0  0  0
  -20.8000   19.0704  -30.1528 H   0  0  0  0  0  0  0  0  0  0  0  0
  -20.4557   18.0657  -31.6015 H   0  0  0  0  0  0  0  0  0  0  0  0
  -21.8550   19.1920  -31.6015 H   0  0  0  0  0  0  0  0  0  0  0  0
  -23.7721   17.4525  -28.1977 H   0  0  0  0  0  0  0  0  0  0  0  0
  -23.1660   16.9911  -25.8116 H   0  0  0  0  0  0  0  0  0  0  0  0
  -20.5746   20.1832  -22.8926 H   0  0  0  0  0  0  0  0  0  0  0  0
  -19.1658   21.8292  -24.3004 H   0  0  0  0  0  0  0  0  0  0  0  0
  -18.0029   20.5805  -26.2345 H   0  0  0  0  0  0  0  0  0  0  0  0
  -21.9825   15.0284  -23.9375 H   0  0  0  0  0  0  0  0  0  0  0  0
  -22.5980   14.3460  -26.4200 H   0  0  0  0  0  0  0  0  0  0  0  0
  -21.8016   11.9420  -27.4313 H   0  0  0  0  0  0  0  0  0  0  0  0
  -23.9980   12.9938  -27.8936 H   0  0  0  0  0  0  0  0  0  0  0  0
  -23.1516   14.3572  -28.7412 H   0  0  0  0  0  0  0  0  0  0  0  0
  -23.1171   11.4267  -29.6010 H   0  0  0  0  0  0  0  0  0  0  0  0
  -24.0917   12.7366  -30.3526 H   0  0  0  0  0  0  0  0  0  0  0  0
  -21.9663   12.2475  -31.5501 H   0  0  0  0  0  0  0  0  0  0  0  0
  -22.1111   13.9565  -30.9204 H   0  0  0  0  0  0  0  0  0  0  0  0
  -20.4170   11.6957  -29.8603 H   0  0  0  0  0  0  0  0  0  0  0  0
  -19.9272   13.3292  -30.5474 H   0  0  0  0  0  0  0  0  0  0  0  0
  -19.7173   13.0114  -28.0175 H   0  0  0  0  0  0  0  0  0  0  0  0
  -20.5963   14.4726  -28.6447 H   0  0  0  0  0  0  0  0  0  0  0  0
  -18.4095   15.5202  -24.1835 H   0  0  0  0  0  0  0  0  0  0  0  0
  -16.8259   14.6703  -22.4691 H   0  0  0  0  0  0  0  0  0  0  0  0
  -17.6247   13.0806  -20.7408 H   0  0  0  0  0  0  0  0  0  0  0  0
  -21.5077   13.1736  -22.4266 H   0  0  0  0  0  0  0  0  0  0  0  0
  -19.0789   16.2368  -26.9878 H   0  0  0  0  0  0  0  0  0  0  0  0
  -19.6818   16.6974  -29.3785 H   0  0  0  0  0  0  0  0  0  0  0  0
  1  2  1  0
  2  3  1  0
  2  4  1  0
  2  5  1  0
  5  6  2  0
  6  7  1  0
  7  8  2  0
  8  9  1  0
  9 10  1  0
 10 11  2  0
 10 12  1  0
 12 13  2  0
 13 14  1  0
 14 15  1  0
 15 16  2  0
  9 17  1  0
 17 18  1  0
 18 19  2  0
 18 20  1  0
 20 21  1  0
 21 22  1  0
 22 23  1  0
 23 24  1  0
 24 25  1  0
 25 26  1  0
 17 27  1  0
 27 28  2  0
 28 29  1  0
 29 30  2  0
 30 31  1  0
 31 32  2  0
  8 33  1  0
 33 34  2  0
 34  5  1  0
 16 12  1  0
 26 21  1  0
 32 27  1  0
  1 35  1  0
  1 36  1  0
  1 37  1  0
  3 38  1  0
  3 39  1  0
  3 40  1  0
  4 41  1  0
  4 42  1  0
  4 43  1  0
  6 44  1  0
  7 45  1  0
 13 46  1  0
 14 47  1  0
 15 48  1  0
 17 49  1  0
 20 50  1  0
 21 51  1  0
 22 52  1  0
 22 53  1  0
 23 54  1  0
 23 55  1  0
 24 56  1  0
 24 57  1  0
 25 58  1  0
 25 59  1  0
 26 60  1  0
 26 61  1  0
 28 62  1  0
 29 63  1  0
 30 64  1  0
 32 65  1  0
 33 66  1  0
 34 67  1  0
M  END
>  <meeko>  (7) 
{"free_energy": -8.54, "intermolecular_energy": -10.927, "internal_energy": -3.195}

$$$$

     RDKit          3D

 67 70  0  0  0  0  0  0  0  0999 V2000
  -22.0160   14.3400  -27.8800 C   0  0  0  0  0  0  0  0  0  0  0  0
  -21.1860   14.7950  -29.0840 C   0  0  0  0  0  0  0  0  0  0  0  0
  -19.9550   13.8710  -29.1950 C   0  0  0  0  0  0  0  0  0  0  0  0
  -22.0030   14.6430  -30.3640 C   0  0  0  0  0  0  0  0  0  0  0  0
  -20.8190   16.3090  -28.8630 C   0  0  0  0  0  0  0  0  0  0  0  0
  -21.8260   17.2330  -28.5590 C   0  0  0  0  0  0  0  0  0  0  0  0
  -21.5040   18.5810  -28.3570 C   0  0  0  0  0  0  0  0  0  0  0  0
  -20.1700   18.9900  -28.4470 C   0  0  0  0  0  0  0  0  0  0  0  0
  -19.8660   20.4230  -28.2290 N   0  0  0  0  0  0  0  0  0  0  0  0
  -20.0090   21.4480  -29.2720 C   0  0  0  0  0  0  0  0  0  0  0  0
  -19.0170   21.8680  -29.7570 O   0  0  0  0  0  0  0  0  0  0  0  0
  -21.3940   21.9660  -29.7240 C   0  0  0  0  0  0  0  0  0  0  0  0
  -22.6420   21.6370  -29.2300 C   0  0  0  0  0  0  0  0  0  0  0  0
  -23.5480   22.3430  -29.8960 N   0  0  0  0  0  0  0  0  0  0  0  0
  -22.8970   23.0930  -30.7820 C   0  0  0  0  0  0  0  0  0  0  0  0
  -21.5730   22.8640  -30.6690 N   0  0  0  0  0  0  0  0  0  0  0  0
  -19.5710   20.8210  -26.8840 C   0  0  0  0  0  0  0  0  0  0  0  0
  -19.3560   19.5330  -26.0350 C   0  0  0  0  0  0  0  0  0  0  0  0
  -18.2530   19.0980  -25.8220 O   0  0  0  0  0  0  0  0  0  0  0  0
  -20.5570   18.9020  -25.4630 N   0  0  0  0  0  0  0  0  0  0  0  0
  -20.5130   17.7170  -24.6430 C   0  0  0  0  0  0  0  0  0  0  0  0
  -21.9560   17.2450  -24.4810 C   0  0  0  0  0  0  0  0  0  0  0  0
  -22.0420   15.9240  -23.7200 C   0  0  0  0  0  0  0  0  0  0  0  0
  -21.2840   14.8640  -24.4640 C   0  0  0  0  0  0  0  0  0  0  0  0
  -19.8560   15.2540  -24.7840 C   0  0  0  0  0  0  0  0  0  0  0  0
  -19.6870   16.6560  -25.3910 C   0  0  0  0  0  0  0  0  0  0  0  0
  -18.3010   21.5770  -26.6300 C   0  0  0  0  0  0  0  0  0  0  0  0
  -18.2650   22.4240  -25.5800 C   0  0  0  0  0  0  0  0  0  0  0  0
  -17.0980   23.0920  -25.3070 C   0  0  0  0  0  0  0  0  0  0  0  0
  -15.9890   22.8850  -26.1040 C   0  0  0  0  0  0  0  0  0  0  0  0
  -16.0420   22.0310  -27.1400 N   0  0  0  0  0  0  0  0  0  0  0  0
  -17.1980   21.3880  -27.4180 C   0  0  0  0  0  0  0  0  0  0  0  0
  -19.1690   18.0860  -28.7520 C   0  0  0  0  0  0  0  0  0  0  0  0
  -19.4940   16.7330  -28.9550 C   0  0  0  0  0  0  0  0  0  0  0  0
  -21.4998   14.6230  -26.9508 H   0  0  0  0  0  0  0  0  0  0  0  0
  -23.0039   14.8227  -27.9122 H   0  0  0  0  0  0  0  0  0  0  0  0
  -22.1404   13.2475  -27.9122 H   0  0  0  0  0  0  0  0  0  0  0  0
  -19.6029   13.6067  -28.1870 H   0  0  0  0  0  0  0  0  0  0  0  0
  -20.2315   12.9555  -29.7386 H   0  0  0  0  0  0  0  0  0  0  0  0
  -19.1532   14.3922  -29.7386 H   0  0  0  0  0  0  0  0  0  0  0  0
  -23.0545   14.4474  -30.1068 H   0  0  0  0  0  0  0  0  0  0  0  0
  -21.9360   15.5690  -30.9539 H   0  0  0  0  0  0  0  0  0  0  0  0
  -21.6074   13.8030  -30.9539 H   0  0  0  0  0  0  0  0  0  0  0  0
  -22.8713   16.8999  -28.4787 H   0  0  0  0  0  0  0  0  0  0  0  0
  -22.2940   19.3118  -28.1294 H   0  0  0  0  0  0  0  0  0  0  0  0
  -22.8487   20.9160  -28.4254 H   0  0  0  0  0  0  0  0  0  0  0  0
  -24.5677   22.3153  -29.7532 H   0  0  0  0  0  0  0  0  0  0  0  0
  -23.3648   23.7893  -31.4936 H   0  0  0  0  0  0  0  0  0  0  0  0
  -20.4205   21.4758  -26.6399 H   0  0  0  0  0  0  0  0  0  0  0  0
  -21.3220   19.2580  -25.6270 H   0  0  0  0  0  0  0  0  0  0  0  0
  -20.0577   17.9004  -23.6586 H   0  0  0  0  0  0  0  0  0  0  0  0
  -22.5206   18.0107  -23.9288 H   0  0  0  0  0  0  0  0  0  0  0  0
  -22.3775   17.0877  -25.4848 H   0  0  0  0  0  0  0  0  0  0  0  0
  -21.6067   16.0500  -22.7177 H   0  0  0  0  0  0  0  0  0  0  0  0
  -23.0961   15.6231  -23.6286 H   0  0  0  0  0  0  0  0  0  0  0  0
  -21.2663   13.9522  -23.8490 H   0  0  0  0  0  0  0  0  0  0  0  0
  -21.8000   14.7105  -25.4233 H   0  0  0  0  0  0  0  0  0  0  0  0
  -19.2738   15.2132  -23.8516 H   0  0  0  0  0  0  0  0  0  0  0  0
  -19.5067   14.5437  -25.5478 H   0  0  0  0  0  0  0  0  0  0  0  0
  -18.6244   16.9365  -25.3441 H   0  0  0  0  0  0  0  0  0  0  0  0
  -20.0461   16.6195  -26.4301 H   0  0  0  0  0  0  0  0  0  0  0  0
  -19.1563   22.5763  -24.9535 H   0  0  0  0  0  0  0  0  0  0  0  0
  -17.0458   23.7890  -24.4576 H   0  0  0  0  0  0  0  0  0  0  0  0
  -15.0545   23.4239  -25.8887 H   0  0  0  0  0  0  0  0  0  0  0  0
  -17.2525   20.7094  -28.2820 H   0  0  0  0  0  0  0  0  0  0  0  0
  -18.1252   18.4231  -28.8353 H   0  0  0  0  0  0  0  0  0  0  0  0
  -18.7007   16.0072  -29.1870 H   0  0  0  0  0  0  0  0  0  0  0  0
  1  2  1  0
  2  3  1  0
  2  4  1  0
  2  5  1  0
  5  6  2  0
  6  7  1  0
  7  8  2  0
  8  9  1  0
  9 10  1  0
 10 11  2  0
 10 12  1  0
 12 13  2  0
 13 14  1  0
 14 15  1  0
 15 16  2  0
  9 17  1  0
 17 18  1  0
 18 19  2  0
 18 20  1  0
 20 21  1  0
 21 22  1  0
 22 23  1  0
 23 24  1  0
 24 25  1  0
 25 26  1  0
 17 27  1  0
 27 28  2  0
 28 29  1  0
 29 30  2  0
 30 31  1  0
 31 32  2  0
  8 33  1  0
 33 34  2  0
 34  5  1  0
 16 12  1  0
 26 21  1  0
 32 27  1  0
  1 35  1  0
  1 36  1  0
  1 37  1  0
  3 38  1  0
  3 39  1  0
  3 40  1  0
  4 41  1  0
  4 42  1  0
  4 43  1  0
  6 44  1  0
  7 45  1  0
 13 46  1  0
 14 47  1  0
 15 48  1  0
 17 49  1  0
 20 50  1  0
 21 51  1  0
 22 52  1  0
 22 53  1  0
 23 54  1  0
 23 55  1  0
 24 56  1  0
 24 57  1  0
 25 58  1  0
 25 59  1  0
 26 60  1  0
 26 61  1  0
 28 62  1  0
 29 63  1  0
 30 64  1  0
 32 65  1  0
 33 66  1  0
 34 67  1  0
M  END
>  <meeko>  (8) 
{"free_energy": -8.438, "intermolecular_energy": -10.824, "internal_energy": -3.231}

$$$$

     RDKit          3D

 67 70  0  0  0  0  0  0  0  0999 V2000
  -17.9520   21.8540  -26.0840 C   0  0  0  0  0  0  0  0  0  0  0  0
  -17.8400   21.0990  -27.4120 C   0  0  0  0  0  0  0  0  0  0  0  0
  -18.3410   22.0310  -28.5370 C   0  0  0  0  0  0  0  0  0  0  0  0
  -16.3780   20.7660  -27.6970 C   0  0  0  0  0  0  0  0  0  0  0  0
  -18.6730   19.7720  -27.2770 C   0  0  0  0  0  0  0  0  0  0  0  0
  -18.7180   19.1000  -26.0490 C   0  0  0  0  0  0  0  0  0  0  0  0
  -19.4630   17.9200  -25.9230 C   0  0  0  0  0  0  0  0  0  0  0  0
  -20.1690   17.4310  -27.0260 C   0  0  0  0  0  0  0  0  0  0  0  0
  -20.9440   16.1800  -26.8550 N   0  0  0  0  0  0  0  0  0  0  0  0
  -20.4350   14.8560  -27.2370 C   0  0  0  0  0  0  0  0  0  0  0  0
  -19.3830   14.5360  -26.8050 O   0  0  0  0  0  0  0  0  0  0  0  0
  -21.2310   13.9120  -28.1680 C   0  0  0  0  0  0  0  0  0  0  0  0
  -20.9830   13.5910  -29.4890 C   0  0  0  0  0  0  0  0  0  0  0  0
  -21.9060   12.7200  -29.8810 N   0  0  0  0  0  0  0  0  0  0  0  0
  -22.7100   12.4970  -28.8450 C   0  0  0  0  0  0  0  0  0  0  0  0
  -22.2880   13.2250  -27.7920 N   0  0  0  0  0  0  0  0  0  0  0  0
  -22.1800   16.2820  -26.1380 C   0  0  0  0  0  0  0  0  0  0  0  0
  -21.8960   15.9790  -24.6380 C   0  0  0  0  0  0  0  0  0  0  0  0
  -22.7600   16.0740  -23.8030 O   0  0  0  0  0  0  0  0  0  0  0  0
  -20.5390   15.5240  -24.2940 N   0  0  0  0  0  0  0  0  0  0  0  0
  -20.1330   15.1900  -22.9500 C   0  0  0  0  0  0  0  0  0  0  0  0
  -21.1220   14.1440  -22.4430 C   0  0  0  0  0  0  0  0  0  0  0  0
  -20.7380   13.6180  -21.0620 C   0  0  0  0  0  0  0  0  0  0  0  0
  -19.3780   12.9860  -21.1230 C   0  0  0  0  0  0  0  0  0  0  0  0
  -18.3160   13.8920  -21.7120 C   0  0  0  0  0  0  0  0  0  0  0  0
  -18.7160   14.5950  -23.0190 C   0  0  0  0  0  0  0  0  0  0  0  0
  -22.8490   17.6220  -26.0640 C   0  0  0  0  0  0  0  0  0  0  0  0
  -22.4700   18.4690  -25.0840 C   0  0  0  0  0  0  0  0  0  0  0  0
  -23.0410   19.7150  -25.0270 C   0  0  0  0  0  0  0  0  0  0  0  0
  -23.9850   20.0790  -25.9690 C   0  0  0  0  0  0  0  0  0  0  0  0
  -24.3420   19.2250  -26.9420 N   0  0  0  0  0  0  0  0  0  0  0  0
  -23.7920   17.9910  -26.9850 C   0  0  0  0  0  0  0  0  0  0  0  0
  -20.1260   18.0840  -28.2430 C   0  0  0  0  0  0  0  0  0  0  0  0
  -19.3780   19.2690  -28.3700 C   0  0  0  0  0  0  0  0  0  0  0  0
  -17.8469   21.1453  -25.2493 H   0  0  0  0  0  0  0  0  0  0  0  0
  -17.1564   22.6112  -26.0245 H   0  0  0  0  0  0  0  0  0  0  0  0
  -18.9332   22.3477  -26.0245 H   0  0  0  0  0  0  0  0  0  0  0  0
  -18.8176   22.9177  -28.0936 H   0  0  0  0  0  0  0  0  0  0  0  0
  -17.4900   22.3448  -29.1594 H   0  0  0  0  0  0  0  0  0  0  0  0
  -19.0722   21.4943  -29.1594 H   0  0  0  0  0  0  0  0  0  0  0  0
  -15.8380   20.6430  -26.7466 H   0  0  0  0  0  0  0  0  0  0  0  0
  -16.3206   19.8318  -28.2749 H   0  0  0  0  0  0  0  0  0  0  0  0
  -15.9217   21.5832  -28.2749 H   0  0  0  0  0  0  0  0  0  0  0  0
  -18.1685   19.4986  -25.1835 H   0  0  0  0  0  0  0  0  0  0  0  0
  -19.4921   17.3826  -24.9636 H   0  0  0  0  0  0  0  0  0  0  0  0
  -20.1644   13.9874  -30.1077 H   0  0  0  0  0  0  0  0  0  0  0  0
  -21.9848   12.2951  -30.8159 H   0  0  0  0  0  0  0  0  0  0  0  0
  -23.5810   11.8251  -28.8473 H   0  0  0  0  0  0  0  0  0  0  0  0
  -22.8339   15.5969  -26.6975 H   0  0  0  0  0  0  0  0  0  0  0  0
  -19.9600   15.4540  -24.9250 H   0  0  0  0  0  0  0  0  0  0  0  0
  -20.1244   16.0632  -22.2811 H   0  0  0  0  0  0  0  0  0  0  0  0
  -22.1218   14.5990  -22.3847 H   0  0  0  0  0  0  0  0  0  0  0  0
  -21.1115   13.2971  -23.1449 H   0  0  0  0  0  0  0  0  0  0  0  0
  -20.7223   14.4515  -20.3444 H   0  0  0  0  0  0  0  0  0  0  0  0
  -21.4749   12.8676  -20.7395 H   0  0  0  0  0  0  0  0  0  0  0  0
  -19.0750   12.7128  -20.1015 H   0  0  0  0  0  0  0  0  0  0  0  0
  -19.4579   12.1097  -21.7831 H   0  0  0  0  0  0  0  0  0  0  0  0
  -18.0760   14.6656  -20.9677 H   0  0  0  0  0  0  0  0  0  0  0  0
  -17.4615   13.2449  -21.9593 H   0  0  0  0  0  0  0  0  0  0  0  0
  -18.0005   15.4065  -23.2178 H   0  0  0  0  0  0  0  0  0  0  0  0
  -18.7043   13.8443  -23.8229 H   0  0  0  0  0  0  0  0  0  0  0  0
  -21.7157   18.1652  -24.3432 H   0  0  0  0  0  0  0  0  0  0  0  0
  -22.7491   20.4210  -24.2356 H   0  0  0  0  0  0  0  0  0  0  0  0
  -24.4474   21.0760  -25.9212 H   0  0  0  0  0  0  0  0  0  0  0  0
  -24.1038   17.2797  -27.7640 H   0  0  0  0  0  0  0  0  0  0  0  0
  -20.6733   17.6798  -29.1074 H   0  0  0  0  0  0  0  0  0  0  0  0
  -19.3493   19.7996  -29.3332 H   0  0  0  0  0  0  0  0  0  0  0  0
  1  2  1  0
  2  3  1  0
  2  4  1  0
  2  5  1  0
  5  6  2  0
  6  7  1  0
  7  8  2  0
  8  9  1  0
  9 10  1  0
 10 11  2  0
 10 12  1  0
 12 13  2  0
 13 14  1  0
 14 15  1  0
 15 16  2  0
  9 17  1  0
 17 18  1  0
 18 19  2  0
 18 20  1  0
 20 21  1  0
 21 22  1  0
 22 23  1  0
 23 24  1  0
 24 25  1  0
 25 26  1  0
 17 27  1  0
 27 28  2  0
 28 29  1  0
 29 30  2  0
 30 31  1  0
 31 32  2  0
  8 33  1  0
 33 34  2  0
 34  5  1  0
 16 12  1  0
 26 21  1  0
 32 27  1  0
  1 35  1  0
  1 36  1  0
  1 37  1  0
  3 38  1  0
  3 39  1  0
  3 40  1  0
  4 41  1  0
  4 42  1  0
  4 43  1  0
  6 44  1  0
  7 45  1  0
 13 46  1  0
 14 47  1  0
 15 48  1  0
 17 49  1  0
 20 50  1  0
 21 51  1  0
 22 52  1  0
 22 53  1  0
 23 54  1  0
 23 55  1  0
 24 56  1  0
 24 57  1  0
 25 58  1  0
 25 59  1  0
 26 60  1  0
 26 61  1  0
 28 62  1  0
 29 63  1  0
 30 64  1  0
 32 65  1  0
 33 66  1  0
 34 67  1  0
M  END
>  <meeko>  (9) 
{"free_energy": -8.285, "intermolecular_energy": -10.671, "internal_energy": -3.347}

$$$$

