
     RDKit          3D

 67 70  0  0  0  0  0  0  0  0999 V2000
  -16.3780   20.8350  -27.0640 C   0  0  0  0  0  0  0  0  0  0  0  0
  -17.8560   21.2360  -27.1160 C   0  0  0  0  0  0  0  0  0  0  0  0
  -18.1310   22.2070  -25.9470 C   0  0  0  0  0  0  0  0  0  0  0  0
  -18.1470   21.9760  -28.4180 C   0  0  0  0  0  0  0  0  0  0  0  0
  -18.7090   19.9160  -27.0500 C   0  0  0  0  0  0  0  0  0  0  0  0
  -19.0210   19.3490  -25.8090 C   0  0  0  0  0  0  0  0  0  0  0  0
  -19.7850   18.1760  -25.7450 C   0  0  0  0  0  0  0  0  0  0  0  0
  -20.2420   17.5890  -26.9280 C   0  0  0  0  0  0  0  0  0  0  0  0
  -21.0460   16.3480  -26.8230 N   0  0  0  0  0  0  0  0  0  0  0  0
  -22.3940   16.3060  -26.2430 C   0  0  0  0  0  0  0  0  0  0  0  0
  -23.2530   15.8390  -26.9060 O   0  0  0  0  0  0  0  0  0  0  0  0
  -22.6920   16.8500  -24.8260 C   0  0  0  0  0  0  0  0  0  0  0  0
  -23.1960   18.0850  -24.4640 C   0  0  0  0  0  0  0  0  0  0  0  0
  -23.3170   18.1080  -23.1420 N   0  0  0  0  0  0  0  0  0  0  0  0
  -22.9030   16.9290  -22.6820 C   0  0  0  0  0  0  0  0  0  0  0  0
  -22.5270   16.1560  -23.7210 N   0  0  0  0  0  0  0  0  0  0  0  0
  -20.5170   15.1830  -27.4670 C   0  0  0  0  0  0  0  0  0  0  0  0
  -20.0350   14.1960  -26.3640 C   0  0  0  0  0  0  0  0  0  0  0  0
  -19.3820   13.2200  -26.6340 O   0  0  0  0  0  0  0  0  0  0  0  0
  -20.3710   14.5360  -24.9700 N   0  0  0  0  0  0  0  0  0  0  0  0
  -19.9790   13.7280  -23.8420 C   0  0  0  0  0  0  0  0  0  0  0  0
  -18.7160   14.3650  -23.2680 C   0  0  0  0  0  0  0  0  0  0  0  0
  -18.2550   13.6660  -21.9900 C   0  0  0  0  0  0  0  0  0  0  0  0
  -19.3360   13.7490  -20.9520 C   0  0  0  0  0  0  0  0  0  0  0  0
  -20.6790   13.2430  -21.4350 C   0  0  0  0  0  0  0  0  0  0  0  0
  -21.1180   13.7760  -22.8080 C   0  0  0  0  0  0  0  0  0  0  0  0
  -21.4540   14.3250  -28.2640 C   0  0  0  0  0  0  0  0  0  0  0  0
  -21.6460   14.6310  -29.5650 C   0  0  0  0  0  0  0  0  0  0  0  0
  -22.4670   13.8320  -30.3200 C   0  0  0  0  0  0  0  0  0  0  0  0
  -23.0750   12.7360  -29.7400 C   0  0  0  0  0  0  0  0  0  0  0  0
  -22.8650   12.4430  -28.4460 N   0  0  0  0  0  0  0  0  0  0  0  0
  -22.0700   13.2420  -27.6990 C   0  0  0  0  0  0  0  0  0  0  0  0
  -19.9350   18.1380  -28.1590 C   0  0  0  0  0  0  0  0  0  0  0  0
  -19.1680   19.3150  -28.2220 C   0  0  0  0  0  0  0  0  0  0  0  0
  -16.0583   20.7483  -26.0151 H   0  0  0  0  0  0  0  0  0  0  0  0
  -16.2425   19.8676  -27.5698 H   0  0  0  0  0  0  0  0  0  0  0  0
  -15.7722   21.6012  -27.5698 H   0  0  0  0  0  0  0  0  0  0  0  0
  -17.9824   21.6822  -24.9917 H   0  0  0  0  0  0  0  0  0  0  0  0
  -17.4391   23.0599  -26.0083 H   0  0  0  0  0  0  0  0  0  0  0  0
  -19.1674   22.5705  -26.0083 H   0  0  0  0  0  0  0  0  0  0  0  0
  -18.5408   22.9775  -28.1904 H   0  0  0  0  0  0  0  0  0  0  0  0
  -17.2191   22.0707  -29.0012 H   0  0  0  0  0  0  0  0  0  0  0  0
  -18.8908   21.4133  -29.0012 H   0  0  0  0  0  0  0  0  0  0  0  0
  -18.6661   19.8247  -24.8828 H   0  0  0  0  0  0  0  0  0  0  0  0
  -20.0229   17.7213  -24.7721 H   0  0  0  0  0  0  0  0  0  0  0  0
  -23.4520   18.9052  -25.1508 H   0  0  0  0  0  0  0  0  0  0  0  0
  -23.6671   18.8940  -22.5759 H   0  0  0  0  0  0  0  0  0  0  0  0
  -22.8726   16.6328  -21.6231 H   0  0  0  0  0  0  0  0  0  0  0  0
  -19.7699   15.6118  -28.1511 H   0  0  0  0  0  0  0  0  0  0  0  0
  -20.8230   15.2520  -24.8230 H   0  0  0  0  0  0  0  0  0  0  0  0
  -19.7873   12.6805  -24.1177 H   0  0  0  0  0  0  0  0  0  0  0  0
  -17.9134   14.3011  -24.0175 H   0  0  0  0  0  0  0  0  0  0  0  0
  -18.9450   15.4120  -23.0201 H   0  0  0  0  0  0  0  0  0  0  0  0
  -18.0377   12.6100  -22.2084 H   0  0  0  0  0  0  0  0  0  0  0  0
  -17.3471   14.1585  -21.6117 H   0  0  0  0  0  0  0  0  0  0  0  0
  -19.0302   13.1487  -20.0824 H   0  0  0  0  0  0  0  0  0  0  0  0
  -19.4625   14.8127  -20.7018 H   0  0  0  0  0  0  0  0  0  0  0  0
  -20.6289   12.1458  -21.4949 H   0  0  0  0  0  0  0  0  0  0  0  0
  -21.4232   13.6071  -20.7114 H   0  0  0  0  0  0  0  0  0  0  0  0
  -21.9551   13.1637  -23.1745 H   0  0  0  0  0  0  0  0  0  0  0  0
  -21.4158   14.8275  -22.6824 H   0  0  0  0  0  0  0  0  0  0  0  0
  -21.1524   15.5064  -30.0122 H   0  0  0  0  0  0  0  0  0  0  0  0
  -22.6400   14.0631  -31.3814 H   0  0  0  0  0  0  0  0  0  0  0  0
  -23.7371   12.0973  -30.3430 H   0  0  0  0  0  0  0  0  0  0  0  0
  -21.9179   13.0202  -26.6324 H   0  0  0  0  0  0  0  0  0  0  0  0
  -20.2883   17.6573  -29.0832 H   0  0  0  0  0  0  0  0  0  0  0  0
  -18.9294   19.7628  -29.1980 H   0  0  0  0  0  0  0  0  0  0  0  0
  1  2  1  0
  2  3  1  0
  2  4  1  0
  2  5  1  0
  5  6  2  0
  6  7  1  0
  7  8  2  0
  8  9  1  0
  9 10  1  0
 10 11  2  0
 10 12  1  0
 12 13  2  0
 13 14  1  0
 14 15  1  0
 15 16  2  0
  9 17  1  0
 17 18  1  0
 18 19  2  0
 18 20  1  0
 20 21  1  0
 21 22  1  0
 22 23  1  0
 23 24  1  0
 24 25  1  0
 25 26  1  0
 17 27  1  0
 27 28  2  0
 28 29  1  0
 29 30  2  0
 30 31  1  0
 31 32  2  0
  8 33  1  0
 33 34  2  0
 34  5  1  0
 16 12  1  0
 26 21  1  0
 32 27  1  0
  1 35  1  0
  1 36  1  0
  1 37  1  0
  3 38  1  0
  3 39  1  0
  3 40  1  0
  4 41  1  0
  4 42  1  0
  4 43  1  0
  6 44  1  0
  7 45  1  0
 13 46  1  0
 14 47  1  0
 15 48  1  0
 17 49  1  0
 20 50  1  0
 21 51  1  0
 22 52  1  0
 22 53  1  0
 23 54  1  0
 23 55  1  0
 24 56  1  0
 24 57  1  0
 25 58  1  0
 25 59  1  0
 26 60  1  0
 26 61  1  0
 28 62  1  0
 29 63  1  0
 30 64  1  0
 32 65  1  0
 33 66  1  0
 34 67  1  0
M  END
>  <meeko>  (1) 
{"free_energy": -9.32, "intermolecular_energy": -11.707, "internal_energy": -3.331}

$$$$

     RDKit          3D

 67 70  0  0  0  0  0  0  0  0999 V2000
  -24.0500   16.9730  -33.5950 C   0  0  0  0  0  0  0  0  0  0  0  0
  -24.6200   17.2410  -32.1980 C   0  0  0  0  0  0  0  0  0  0  0  0
  -25.2270   18.6600  -32.1930 C   0  0  0  0  0  0  0  0  0  0  0  0
  -25.7410   16.2510  -31.8960 C   0  0  0  0  0  0  0  0  0  0  0  0
  -23.4500   17.0540  -31.1630 C   0  0  0  0  0  0  0  0  0  0  0  0
  -23.5290   17.6630  -29.9050 C   0  0  0  0  0  0  0  0  0  0  0  0
  -22.4920   17.4950  -28.9780 C   0  0  0  0  0  0  0  0  0  0  0  0
  -21.3890   16.7050  -29.3160 C   0  0  0  0  0  0  0  0  0  0  0  0
  -20.3110   16.5520  -28.3110 N   0  0  0  0  0  0  0  0  0  0  0  0
  -19.5110   17.6750  -27.8070 C   0  0  0  0  0  0  0  0  0  0  0  0
  -18.5980   18.0280  -28.4690 O   0  0  0  0  0  0  0  0  0  0  0  0
  -19.8350   18.3720  -26.4660 C   0  0  0  0  0  0  0  0  0  0  0  0
  -21.0080   18.9930  -26.0770 C   0  0  0  0  0  0  0  0  0  0  0  0
  -20.8500   19.4280  -24.8320 N   0  0  0  0  0  0  0  0  0  0  0  0
  -19.6200   19.0950  -24.4460 C   0  0  0  0  0  0  0  0  0  0  0  0
  -19.0020   18.4410  -25.4500 N   0  0  0  0  0  0  0  0  0  0  0  0
  -20.1730   15.2590  -27.7090 C   0  0  0  0  0  0  0  0  0  0  0  0
  -20.5030   15.3930  -26.1930 C   0  0  0  0  0  0  0  0  0  0  0  0
  -21.5050   15.9440  -25.8150 O   0  0  0  0  0  0  0  0  0  0  0  0
  -19.5600   14.7720  -25.2470 N   0  0  0  0  0  0  0  0  0  0  0  0
  -19.7420   14.7990  -23.8160 C   0  0  0  0  0  0  0  0  0  0  0  0
  -20.6430   13.6180  -23.4690 C   0  0  0  0  0  0  0  0  0  0  0  0
  -20.8260   13.4640  -21.9600 C   0  0  0  0  0  0  0  0  0  0  0  0
  -19.4920   13.2420  -21.3110 C   0  0  0  0  0  0  0  0  0  0  0  0
  -18.4640   14.2970  -21.6640 C   0  0  0  0  0  0  0  0  0  0  0  0
  -18.3600   14.6260  -23.1610 C   0  0  0  0  0  0  0  0  0  0  0  0
  -21.1130   14.1720  -28.1370 C   0  0  0  0  0  0  0  0  0  0  0  0
  -20.7640   13.4080  -29.1930 C   0  0  0  0  0  0  0  0  0  0  0  0
  -21.5920   12.3820  -29.5720 C   0  0  0  0  0  0  0  0  0  0  0  0
  -22.7590   12.1490  -28.8690 C   0  0  0  0  0  0  0  0  0  0  0  0
  -23.0840   12.9160  -27.8150 N   0  0  0  0  0  0  0  0  0  0  0  0
  -22.2760   13.9380  -27.4540 C   0  0  0  0  0  0  0  0  0  0  0  0
  -21.3000   16.1050  -30.5570 C   0  0  0  0  0  0  0  0  0  0  0  0
  -22.3410   16.2730  -31.4880 C   0  0  0  0  0  0  0  0  0  0  0  0
  -23.0580   16.5066  -33.5030 H   0  0  0  0  0  0  0  0  0  0  0  0
  -24.7236   16.2972  -34.1424 H   0  0  0  0  0  0  0  0  0  0  0  0
  -23.9593   17.9228  -34.1424 H   0  0  0  0  0  0  0  0  0  0  0  0
  -25.3699   18.9940  -31.1547 H   0  0  0  0  0  0  0  0  0  0  0  0
  -24.5461   19.3519  -32.7104 H   0  0  0  0  0  0  0  0  0  0  0  0
  -26.1976   18.6454  -32.7104 H   0  0  0  0  0  0  0  0  0  0  0  0
  -25.8565   16.1490  -30.8069 H   0  0  0  0  0  0  0  0  0  0  0  0
  -26.6819   16.6183  -32.3317 H   0  0  0  0  0  0  0  0  0  0  0  0
  -25.4928   15.2719  -32.3317 H   0  0  0  0  0  0  0  0  0  0  0  0
  -24.4058   18.2738  -29.6441 H   0  0  0  0  0  0  0  0  0  0  0  0
  -22.5451   17.9806  -27.9924 H   0  0  0  0  0  0  0  0  0  0  0  0
  -21.9134   19.1068  -26.6912 H   0  0  0  0  0  0  0  0  0  0  0  0
  -21.5505   19.9307  -24.2685 H   0  0  0  0  0  0  0  0  0  0  0  0
  -19.1781   19.3181  -23.4637 H   0  0  0  0  0  0  0  0  0  0  0  0
  -19.1523   14.9714  -28.0015 H   0  0  0  0  0  0  0  0  0  0  0  0
  -18.8680   14.3740  -25.5640 H   0  0  0  0  0  0  0  0  0  0  0  0
  -20.1920   15.7391  -23.4642 H   0  0  0  0  0  0  0  0  0  0  0  0
  -21.6283   13.7744  -23.9324 H   0  0  0  0  0  0  0  0  0  0  0  0
  -20.1662   12.7026  -23.8494 H   0  0  0  0  0  0  0  0  0  0  0  0
  -21.2842   14.3769  -21.5518 H   0  0  0  0  0  0  0  0  0  0  0  0
  -21.4786   12.6020  -21.7574 H   0  0  0  0  0  0  0  0  0  0  0  0
  -19.6314   13.2433  -20.2199 H   0  0  0  0  0  0  0  0  0  0  0  0
  -19.1083   12.2802  -21.6820 H   0  0  0  0  0  0  0  0  0  0  0  0
  -18.7260   15.2216  -21.1287 H   0  0  0  0  0  0  0  0  0  0  0  0
  -17.4871   13.8850  -21.3709 H   0  0  0  0  0  0  0  0  0  0  0  0
  -17.7923   15.5607  -23.2796 H   0  0  0  0  0  0  0  0  0  0  0  0
  -17.8543   13.7845  -23.6572 H   0  0  0  0  0  0  0  0  0  0  0  0
  -19.8307   13.6047  -29.7411 H   0  0  0  0  0  0  0  0  0  0  0  0
  -21.3284   11.7478  -30.4312 H   0  0  0  0  0  0  0  0  0  0  0  0
  -23.4264   11.3298  -29.1747 H   0  0  0  0  0  0  0  0  0  0  0  0
  -22.5542   14.5840  -26.6082 H   0  0  0  0  0  0  0  0  0  0  0  0
  -20.4194   15.4988  -30.8160 H   0  0  0  0  0  0  0  0  0  0  0  0
  -22.2804   15.7879  -32.4734 H   0  0  0  0  0  0  0  0  0  0  0  0
  1  2  1  0
  2  3  1  0
  2  4  1  0
  2  5  1  0
  5  6  2  0
  6  7  1  0
  7  8  2  0
  8  9  1  0
  9 10  1  0
 10 11  2  0
 10 12  1  0
 12 13  2  0
 13 14  1  0
 14 15  1  0
 15 16  2  0
  9 17  1  0
 17 18  1  0
 18 19  2  0
 18 20  1  0
 20 21  1  0
 21 22  1  0
 22 23  1  0
 23 24  1  0
 24 25  1  0
 25 26  1  0
 17 27  1  0
 27 28  2  0
 28 29  1  0
 29 30  2  0
 30 31  1  0
 31 32  2  0
  8 33  1  0
 33 34  2  0
 34  5  1  0
 16 12  1  0
 26 21  1  0
 32 27  1  0
  1 35  1  0
  1 36  1  0
  1 37  1  0
  3 38  1  0
  3 39  1  0
  3 40  1  0
  4 41  1  0
  4 42  1  0
  4 43  1  0
  6 44  1  0
  7 45  1  0
 13 46  1  0
 14 47  1  0
 15 48  1  0
 17 49  1  0
 20 50  1  0
 21 51  1  0
 22 52  1  0
 22 53  1  0
 23 54  1  0
 23 55  1  0
 24 56  1  0
 24 57  1  0
 25 58  1  0
 25 59  1  0
 26 60  1  0
 26 61  1  0
 28 62  1  0
 29 63  1  0
 30 64  1  0
 32 65  1  0
 33 66  1  0
 34 67  1  0
M  END
>  <meeko>  (2) 
{"free_energy": -9.285, "intermolecular_energy": -11.671, "internal_energy": -2.652}

$$$$

     RDKit          3D

 67 70  0  0  0  0  0  0  0  0999 V2000
  -17.1310   22.2350  -28.1160 C   0  0  0  0  0  0  0  0  0  0  0  0
  -17.3730   21.5310  -26.7770 C   0  0  0  0  0  0  0  0  0  0  0  0
  -16.0030   21.1180  -26.1980 C   0  0  0  0  0  0  0  0  0  0  0  0
  -18.0240   22.4980  -25.7930 C   0  0  0  0  0  0  0  0  0  0  0  0
  -18.3340   20.3150  -27.0450 C   0  0  0  0  0  0  0  0  0  0  0  0
  -18.0010   19.3650  -28.0190 C   0  0  0  0  0  0  0  0  0  0  0  0
  -18.8520   18.2780  -28.2580 C   0  0  0  0  0  0  0  0  0  0  0  0
  -20.0240   18.1450  -27.5080 C   0  0  0  0  0  0  0  0  0  0  0  0
  -20.9000   16.9840  -27.7900 N   0  0  0  0  0  0  0  0  0  0  0  0
  -22.2250   17.1030  -28.4140 C   0  0  0  0  0  0  0  0  0  0  0  0
  -23.1240   17.4200  -27.7160 O   0  0  0  0  0  0  0  0  0  0  0  0
  -22.4470   16.8250  -29.9180 C   0  0  0  0  0  0  0  0  0  0  0  0
  -21.9420   17.5090  -31.0070 C   0  0  0  0  0  0  0  0  0  0  0  0
  -22.3700   16.9040  -32.1080 N   0  0  0  0  0  0  0  0  0  0  0  0
  -23.1210   15.8730  -31.7310 C   0  0  0  0  0  0  0  0  0  0  0  0
  -23.1610   15.8230  -30.3840 N   0  0  0  0  0  0  0  0  0  0  0  0
  -20.3350   15.6840  -27.5750 C   0  0  0  0  0  0  0  0  0  0  0  0
  -20.3370   15.4020  -26.0440 C   0  0  0  0  0  0  0  0  0  0  0  0
  -20.8390   16.1710  -25.2640 O   0  0  0  0  0  0  0  0  0  0  0  0
  -19.7450   14.1300  -25.5980 N   0  0  0  0  0  0  0  0  0  0  0  0
  -19.6900   13.7240  -24.2150 C   0  0  0  0  0  0  0  0  0  0  0  0
  -18.6290   14.5940  -23.5470 C   0  0  0  0  0  0  0  0  0  0  0  0
  -18.5480   14.3420  -22.0430 C   0  0  0  0  0  0  0  0  0  0  0  0
  -19.8740   14.6490  -21.4090 C   0  0  0  0  0  0  0  0  0  0  0  0
  -21.0360   13.9250  -22.0550 C   0  0  0  0  0  0  0  0  0  0  0  0
  -21.0700   13.9930  -23.5900 C   0  0  0  0  0  0  0  0  0  0  0  0
  -21.0700   14.4930  -28.1120 C   0  0  0  0  0  0  0  0  0  0  0  0
  -20.6080   13.9150  -29.2410 C   0  0  0  0  0  0  0  0  0  0  0  0
  -21.2430   12.7990  -29.7230 C   0  0  0  0  0  0  0  0  0  0  0  0
  -22.3340   12.2880  -29.0470 C   0  0  0  0  0  0  0  0  0  0  0  0
  -22.7740   12.8720  -27.9200 N   0  0  0  0  0  0  0  0  0  0  0  0
  -22.1580   13.9830  -27.4570 C   0  0  0  0  0  0  0  0  0  0  0  0
  -20.3640   19.0800  -26.5490 C   0  0  0  0  0  0  0  0  0  0  0  0
  -19.5100   20.1710  -26.3090 C   0  0  0  0  0  0  0  0  0  0  0  0
  -16.7784   23.2607  -27.9325 H   0  0  0  0  0  0  0  0  0  0  0  0
  -16.3710   21.6829  -28.6884 H   0  0  0  0  0  0  0  0  0  0  0  0
  -18.0698   22.2669  -28.6884 H   0  0  0  0  0  0  0  0  0  0  0  0
  -16.0500   21.1322  -25.0991 H   0  0  0  0  0  0  0  0  0  0  0  0
  -15.7506   20.1038  -26.5411 H   0  0  0  0  0  0  0  0  0  0  0  0
  -15.2321   21.8237  -26.5411 H   0  0  0  0  0  0  0  0  0  0  0  0
  -17.8069   22.1755  -24.7640 H   0  0  0  0  0  0  0  0  0  0  0  0
  -17.6222   23.5095  -25.9527 H   0  0  0  0  0  0  0  0  0  0  0  0
  -19.1123   22.5063  -25.9527 H   0  0  0  0  0  0  0  0  0  0  0  0
  -17.0710   19.4725  -28.5965 H   0  0  0  0  0  0  0  0  0  0  0  0
  -18.5999   17.5354  -29.0294 H   0  0  0  0  0  0  0  0  0  0  0  0
  -21.2976   18.3997  -30.9683 H   0  0  0  0  0  0  0  0  0  0  0  0
  -22.1592   17.1820  -33.0771 H   0  0  0  0  0  0  0  0  0  0  0  0
  -23.6288   15.1724  -32.4101 H   0  0  0  0  0  0  0  0  0  0  0  0
  -19.3680   15.7592  -28.0939 H   0  0  0  0  0  0  0  0  0  0  0  0
  -19.4140   13.6040  -26.1920 H   0  0  0  0  0  0  0  0  0  0  0  0
  -19.4412   12.6591  -24.0958 H   0  0  0  0  0  0  0  0  0  0  0  0
  -17.6508   14.3706  -23.9979 H   0  0  0  0  0  0  0  0  0  0  0  0
  -18.9063   15.6473  -23.7011 H   0  0  0  0  0  0  0  0  0  0  0  0
  -18.2908   13.2880  -21.8617 H   0  0  0  0  0  0  0  0  0  0  0  0
  -17.7747   14.9902  -21.6050 H   0  0  0  0  0  0  0  0  0  0  0  0
  -19.8286   14.3579  -20.3492 H   0  0  0  0  0  0  0  0  0  0  0  0
  -20.0524   15.7266  -21.5392 H   0  0  0  0  0  0  0  0  0  0  0  0
  -20.9844   12.8662  -21.7612 H   0  0  0  0  0  0  0  0  0  0  0  0
  -21.9474   14.4312  -21.7042 H   0  0  0  0  0  0  0  0  0  0  0  0
  -21.7802   13.2399  -23.9622 H   0  0  0  0  0  0  0  0  0  0  0  0
  -21.3776   15.0097  -23.8760 H   0  0  0  0  0  0  0  0  0  0  0  0
  -19.7362   14.3324  -29.7660 H   0  0  0  0  0  0  0  0  0  0  0  0
  -20.8855   12.3134  -30.6430 H   0  0  0  0  0  0  0  0  0  0  0  0
  -22.8468   11.3954  -29.4348 H   0  0  0  0  0  0  0  0  0  0  0  0
  -22.5331   14.4792  -26.5497 H   0  0  0  0  0  0  0  0  0  0  0  0
  -21.2972   18.9715  -25.9768 H   0  0  0  0  0  0  0  0  0  0  0  0
  -19.7699   20.9125  -25.5392 H   0  0  0  0  0  0  0  0  0  0  0  0
  1  2  1  0
  2  3  1  0
  2  4  1  0
  2  5  1  0
  5  6  2  0
  6  7  1  0
  7  8  2  0
  8  9  1  0
  9 10  1  0
 10 11  2  0
 10 12  1  0
 12 13  2  0
 13 14  1  0
 14 15  1  0
 15 16  2  0
  9 17  1  0
 17 18  1  0
 18 19  2  0
 18 20  1  0
 20 21  1  0
 21 22  1  0
 22 23  1  0
 23 24  1  0
 24 25  1  0
 25 26  1  0
 17 27  1  0
 27 28  2  0
 28 29  1  0
 29 30  2  0
 30 31  1  0
 31 32  2  0
  8 33  1  0
 33 34  2  0
 34  5  1  0
 16 12  1  0
 26 21  1  0
 32 27  1  0
  1 35  1  0
  1 36  1  0
  1 37  1  0
  3 38  1  0
  3 39  1  0
  3 40  1  0
  4 41  1  0
  4 42  1  0
  4 43  1  0
  6 44  1  0
  7 45  1  0
 13 46  1  0
 14 47  1  0
 15 48  1  0
 17 49  1  0
 20 50  1  0
 21 51  1  0
 22 52  1  0
 22 53  1  0
 23 54  1  0
 23 55  1  0
 24 56  1  0
 24 57  1  0
 25 58  1  0
 25 59  1  0
 26 60  1  0
 26 61  1  0
 28 62  1  0
 29 63  1  0
 30 64  1  0
 32 65  1  0
 33 66  1  0
 34 67  1  0
M  END
>  <meeko>  (3) 
{"free_energy": -9.137, "intermolecular_energy": -11.523, "internal_energy": -2.747}

$$$$

     RDKit          3D

 67 70  0  0  0  0  0  0  0  0999 V2000
  -18.2630   22.0670  -25.7420 C   0  0  0  0  0  0  0  0  0  0  0  0
  -17.7280   21.1560  -26.8510 C   0  0  0  0  0  0  0  0  0  0  0  0
  -17.7770   21.9400  -28.1800 C   0  0  0  0  0  0  0  0  0  0  0  0
  -16.2710   20.7980  -26.5720 C   0  0  0  0  0  0  0  0  0  0  0  0
  -18.6060   19.8500  -26.8590 C   0  0  0  0  0  0  0  0  0  0  0  0
  -19.3330   19.4930  -25.7170 C   0  0  0  0  0  0  0  0  0  0  0  0
  -20.1200   18.3340  -25.7200 C   0  0  0  0  0  0  0  0  0  0  0  0
  -20.1810   17.5490  -26.8750 C   0  0  0  0  0  0  0  0  0  0  0  0
  -21.0220   16.3290  -26.8420 N   0  0  0  0  0  0  0  0  0  0  0  0
  -22.3990   16.3100  -26.3310 C   0  0  0  0  0  0  0  0  0  0  0  0
  -22.7350   15.3570  -25.7190 O   0  0  0  0  0  0  0  0  0  0  0  0
  -23.3790   17.4800  -26.5800 C   0  0  0  0  0  0  0  0  0  0  0  0
  -24.2370   18.0930  -25.6870 C   0  0  0  0  0  0  0  0  0  0  0  0
  -24.8680   19.0700  -26.3280 N   0  0  0  0  0  0  0  0  0  0  0  0
  -24.4270   19.0750  -27.5830 C   0  0  0  0  0  0  0  0  0  0  0  0
  -23.5060   18.1010  -27.7330 N   0  0  0  0  0  0  0  0  0  0  0  0
  -20.4920   15.1650  -27.4880 C   0  0  0  0  0  0  0  0  0  0  0  0
  -20.0110   14.1760  -26.3870 C   0  0  0  0  0  0  0  0  0  0  0  0
  -19.3830   13.1850  -26.6620 O   0  0  0  0  0  0  0  0  0  0  0  0
  -20.3120   14.5330  -24.9900 N   0  0  0  0  0  0  0  0  0  0  0  0
  -19.9160   13.7250  -23.8630 C   0  0  0  0  0  0  0  0  0  0  0  0
  -18.6490   14.3590  -23.2960 C   0  0  0  0  0  0  0  0  0  0  0  0
  -18.1820   13.6600  -22.0210 C   0  0  0  0  0  0  0  0  0  0  0  0
  -19.2570   13.7470  -20.9770 C   0  0  0  0  0  0  0  0  0  0  0  0
  -20.6040   13.2440  -21.4520 C   0  0  0  0  0  0  0  0  0  0  0  0
  -21.0490   13.7770  -22.8230 C   0  0  0  0  0  0  0  0  0  0  0  0
  -21.4290   14.3080  -28.2870 C   0  0  0  0  0  0  0  0  0  0  0  0
  -21.5930   14.5950  -29.5960 C   0  0  0  0  0  0  0  0  0  0  0  0
  -22.4130   13.7960  -30.3520 C   0  0  0  0  0  0  0  0  0  0  0  0
  -23.0490   12.7190  -29.7640 C   0  0  0  0  0  0  0  0  0  0  0  0
  -22.8670   12.4460  -28.4620 N   0  0  0  0  0  0  0  0  0  0  0  0
  -22.0730   13.2450  -27.7150 C   0  0  0  0  0  0  0  0  0  0  0  0
  -19.4630   17.8900  -28.0050 C   0  0  0  0  0  0  0  0  0  0  0  0
  -18.6730   19.0530  -28.0010 C   0  0  0  0  0  0  0  0  0  0  0  0
  -18.0108   21.6376  -24.7612 H   0  0  0  0  0  0  0  0  0  0  0  0
  -17.8067   23.0637  -25.8342 H   0  0  0  0  0  0  0  0  0  0  0  0
  -19.3557   22.1540  -25.8342 H   0  0  0  0  0  0  0  0  0  0  0  0
  -17.8443   23.0173  -27.9679 H   0  0  0  0  0  0  0  0  0  0  0  0
  -16.8644   21.7367  -28.7595 H   0  0  0  0  0  0  0  0  0  0  0  0
  -18.6572   21.6247  -28.7595 H   0  0  0  0  0  0  0  0  0  0  0  0
  -16.1051   20.7572  -25.4854 H   0  0  0  0  0  0  0  0  0  0  0  0
  -16.0432   19.8172  -27.0148 H   0  0  0  0  0  0  0  0  0  0  0  0
  -15.6146   21.5616  -27.0148 H   0  0  0  0  0  0  0  0  0  0  0  0
  -19.2862   20.1231  -24.8166 H   0  0  0  0  0  0  0  0  0  0  0  0
  -20.6848   18.0443  -24.8216 H   0  0  0  0  0  0  0  0  0  0  0  0
  -24.3734   17.8196  -24.6303 H   0  0  0  0  0  0  0  0  0  0  0  0
  -25.5705   19.7074  -25.9267 H   0  0  0  0  0  0  0  0  0  0  0  0
  -24.7604   19.7640  -28.3730 H   0  0  0  0  0  0  0  0  0  0  0  0
  -19.7444   15.5952  -28.1706 H   0  0  0  0  0  0  0  0  0  0  0  0
  -20.7470   15.2590  -24.8400 H   0  0  0  0  0  0  0  0  0  0  0  0
  -19.7285   12.6769  -24.1391 H   0  0  0  0  0  0  0  0  0  0  0  0
  -17.8508   14.2933  -24.0500 H   0  0  0  0  0  0  0  0  0  0  0  0
  -18.8749   15.4063  -23.0466 H   0  0  0  0  0  0  0  0  0  0  0  0
  -17.9688   12.6033  -22.2398 H   0  0  0  0  0  0  0  0  0  0  0  0
  -17.2703   14.1499  -21.6485 H   0  0  0  0  0  0  0  0  0  0  0  0
  -18.9480   13.1468  -20.1085 H   0  0  0  0  0  0  0  0  0  0  0  0
  -19.3793   14.8112  -20.7272 H   0  0  0  0  0  0  0  0  0  0  0  0
  -20.5571   12.1466  -21.5112 H   0  0  0  0  0  0  0  0  0  0  0  0
  -21.3433   13.6106  -20.7246 H   0  0  0  0  0  0  0  0  0  0  0  0
  -21.8898   13.1667  -23.1844 H   0  0  0  0  0  0  0  0  0  0  0  0
  -21.3432   14.8294  -22.6967 H   0  0  0  0  0  0  0  0  0  0  0  0
  -21.0778   15.4550  -30.0488 H   0  0  0  0  0  0  0  0  0  0  0  0
  -22.5634   14.0114  -31.4202 H   0  0  0  0  0  0  0  0  0  0  0  0
  -23.7100   12.0799  -30.3679 H   0  0  0  0  0  0  0  0  0  0  0  0
  -21.9440   13.0396  -26.6421 H   0  0  0  0  0  0  0  0  0  0  0  0
  -19.5091   17.2555  -28.9023 H   0  0  0  0  0  0  0  0  0  0  0  0
  -18.1065   19.3347  -28.9009 H   0  0  0  0  0  0  0  0  0  0  0  0
  1  2  1  0
  2  3  1  0
  2  4  1  0
  2  5  1  0
  5  6  2  0
  6  7  1  0
  7  8  2  0
  8  9  1  0
  9 10  1  0
 10 11  2  0
 10 12  1  0
 12 13  2  0
 13 14  1  0
 14 15  1  0
 15 16  2  0
  9 17  1  0
 17 18  1  0
 18 19  2  0
 18 20  1  0
 20 21  1  0
 21 22  1  0
 22 23  1  0
 23 24  1  0
 24 25  1  0
 25 26  1  0
 17 27  1  0
 27 28  2  0
 28 29  1  0
 29 30  2  0
 30 31  1  0
 31 32  2  0
  8 33  1  0
 33 34  2  0
 34  5  1  0
 16 12  1  0
 26 21  1  0
 32 27  1  0
  1 35  1  0
  1 36  1  0
  1 37  1  0
  3 38  1  0
  3 39  1  0
  3 40  1  0
  4 41  1  0
  4 42  1  0
  4 43  1  0
  6 44  1  0
  7 45  1  0
 13 46  1  0
 14 47  1  0
 15 48  1  0
 17 49  1  0
 20 50  1  0
 21 51  1  0
 22 52  1  0
 22 53  1  0
 23 54  1  0
 23 55  1  0
 24 56  1  0
 24 57  1  0
 25 58  1  0
 25 59  1  0
 26 60  1  0
 26 61  1  0
 28 62  1  0
 29 63  1  0
 30 64  1  0
 32 65  1  0
 33 66  1  0
 34 67  1  0
M  END
>  <meeko>  (4) 
{"free_energy": -9.05, "intermolecular_energy": -11.436, "internal_energy": -3.28}

$$$$

     RDKit          3D

 67 70  0  0  0  0  0  0  0  0999 V2000
  -19.3960   13.3950  -29.1220 C   0  0  0  0  0  0  0  0  0  0  0  0
  -20.7470   14.0590  -28.8400 C   0  0  0  0  0  0  0  0  0  0  0  0
  -21.7320   13.6330  -29.9500 C   0  0  0  0  0  0  0  0  0  0  0  0
  -21.3000   13.5630  -27.5080 C   0  0  0  0  0  0  0  0  0  0  0  0
  -20.5080   15.6130  -28.7740 C   0  0  0  0  0  0  0  0  0  0  0  0
  -21.6000   16.4810  -28.6490 C   0  0  0  0  0  0  0  0  0  0  0  0
  -21.3920   17.8650  -28.5850 C   0  0  0  0  0  0  0  0  0  0  0  0
  -20.0880   18.3670  -28.6310 C   0  0  0  0  0  0  0  0  0  0  0  0
  -19.9070   19.8360  -28.5620 N   0  0  0  0  0  0  0  0  0  0  0  0
  -20.0090   20.7180  -29.7310 C   0  0  0  0  0  0  0  0  0  0  0  0
  -19.7980   21.8680  -29.5600 O   0  0  0  0  0  0  0  0  0  0  0  0
  -20.3800   20.1790  -31.1320 C   0  0  0  0  0  0  0  0  0  0  0  0
  -19.9500   20.6210  -32.3690 C   0  0  0  0  0  0  0  0  0  0  0  0
  -20.5020   19.8470  -33.2960 N   0  0  0  0  0  0  0  0  0  0  0  0
  -21.2560   18.9470  -32.6690 C   0  0  0  0  0  0  0  0  0  0  0  0
  -21.1730   19.1500  -31.3390 N   0  0  0  0  0  0  0  0  0  0  0  0
  -19.7820   20.4070  -27.2540 C   0  0  0  0  0  0  0  0  0  0  0  0
  -19.6020   19.2450  -26.2330 C   0  0  0  0  0  0  0  0  0  0  0  0
  -18.5140   18.9330  -25.8210 O   0  0  0  0  0  0  0  0  0  0  0  0
  -20.8260   18.5800  -25.7550 N   0  0  0  0  0  0  0  0  0  0  0  0
  -20.8180   17.5010  -24.7980 C   0  0  0  0  0  0  0  0  0  0  0  0
  -22.2030   16.8620  -24.8510 C   0  0  0  0  0  0  0  0  0  0  0  0
  -22.2950   15.6260  -23.9590 C   0  0  0  0  0  0  0  0  0  0  0  0
  -21.2900   14.6050  -24.4070 C   0  0  0  0  0  0  0  0  0  0  0  0
  -19.8790   15.1460  -24.5010 C   0  0  0  0  0  0  0  0  0  0  0  0
  -19.7460   16.4880  -25.2380 C   0  0  0  0  0  0  0  0  0  0  0  0
  -18.5850   21.2640  -26.9640 C   0  0  0  0  0  0  0  0  0  0  0  0
  -17.4670   21.0620  -27.6930 C   0  0  0  0  0  0  0  0  0  0  0  0
  -16.3770   21.8640  -27.4710 C   0  0  0  0  0  0  0  0  0  0  0  0
  -16.4440   22.8590  -26.5140 C   0  0  0  0  0  0  0  0  0  0  0  0
  -17.5680   23.0500  -25.8050 N   0  0  0  0  0  0  0  0  0  0  0  0
  -18.6350   22.2460  -26.0130 C   0  0  0  0  0  0  0  0  0  0  0  0
  -19.0050   17.5180  -28.7590 C   0  0  0  0  0  0  0  0  0  0  0  0
  -19.2140   16.1290  -28.8240 C   0  0  0  0  0  0  0  0  0  0  0  0
  -18.9012   13.1518  -28.1702 H   0  0  0  0  0  0  0  0  0  0  0  0
  -19.5544   12.4721  -29.6992 H   0  0  0  0  0  0  0  0  0  0  0  0
  -18.7621   14.0842  -29.6992 H   0  0  0  0  0  0  0  0  0  0  0  0
  -22.6503   13.2359  -29.4927 H   0  0  0  0  0  0  0  0  0  0  0  0
  -21.9803   14.5042  -30.5740 H   0  0  0  0  0  0  0  0  0  0  0  0
  -21.2672   12.8555  -30.5740 H   0  0  0  0  0  0  0  0  0  0  0  0
  -20.7587   14.0485  -26.6826 H   0  0  0  0  0  0  0  0  0  0  0  0
  -22.3698   13.8100  -27.4403 H   0  0  0  0  0  0  0  0  0  0  0  0
  -21.1704   12.4728  -27.4403 H   0  0  0  0  0  0  0  0  0  0  0  0
  -22.6216   16.0759  -28.6010 H   0  0  0  0  0  0  0  0  0  0  0  0
  -22.2476   18.5510  -28.4993 H   0  0  0  0  0  0  0  0  0  0  0  0
  -19.2699   21.4657  -32.5532 H   0  0  0  0  0  0  0  0  0  0  0  0
  -20.3707   19.9282  -34.3144 H   0  0  0  0  0  0  0  0  0  0  0  0
  -21.8520   18.1625  -33.1583 H   0  0  0  0  0  0  0  0  0  0  0  0
  -20.6837   21.0331  -27.1841 H   0  0  0  0  0  0  0  0  0  0  0  0
  -21.5820   18.8490  -26.0630 H   0  0  0  0  0  0  0  0  0  0  0  0
  -20.5933   17.8421  -23.7767 H   0  0  0  0  0  0  0  0  0  0  0  0
  -22.9476   17.5989  -24.5154 H   0  0  0  0  0  0  0  0  0  0  0  0
  -22.3942   16.5487  -25.8880 H   0  0  0  0  0  0  0  0  0  0  0  0
  -22.0879   15.9106  -22.9168 H   0  0  0  0  0  0  0  0  0  0  0  0
  -23.3061   15.1987  -24.0304 H   0  0  0  0  0  0  0  0  0  0  0  0
  -21.2962   13.7720  -23.6886 H   0  0  0  0  0  0  0  0  0  0  0  0
  -21.5820   14.2863  -25.4185 H   0  0  0  0  0  0  0  0  0  0  0  0
  -19.4955   15.2787  -23.4786 H   0  0  0  0  0  0  0  0  0  0  0  0
  -19.3074   14.4137  -25.0901 H   0  0  0  0  0  0  0  0  0  0  0  0
  -18.7521   16.9103  -25.0285 H   0  0  0  0  0  0  0  0  0  0  0  0
  -19.8815   16.2981  -26.3130 H   0  0  0  0  0  0  0  0  0  0  0  0
  -17.4309   20.2672  -28.4526 H   0  0  0  0  0  0  0  0  0  0  0  0
  -15.4544   21.7162  -28.0514 H   0  0  0  0  0  0  0  0  0  0  0  0
  -15.5688   23.4999  -26.3317 H   0  0  0  0  0  0  0  0  0  0  0  0
  -19.5478   22.3822  -25.4145 H   0  0  0  0  0  0  0  0  0  0  0  0
  -17.9850   17.9267  -28.8098 H   0  0  0  0  0  0  0  0  0  0  0  0
  -18.3547   15.4482  -28.9145 H   0  0  0  0  0  0  0  0  0  0  0  0
  1  2  1  0
  2  3  1  0
  2  4  1  0
  2  5  1  0
  5  6  2  0
  6  7  1  0
  7  8  2  0
  8  9  1  0
  9 10  1  0
 10 11  2  0
 10 12  1  0
 12 13  2  0
 13 14  1  0
 14 15  1  0
 15 16  2  0
  9 17  1  0
 17 18  1  0
 18 19  2  0
 18 20  1  0
 20 21  1  0
 21 22  1  0
 22 23  1  0
 23 24  1  0
 24 25  1  0
 25 26  1  0
 17 27  1  0
 27 28  2  0
 28 29  1  0
 29 30  2  0
 30 31  1  0
 31 32  2  0
  8 33  1  0
 33 34  2  0
 34  5  1  0
 16 12  1  0
 26 21  1  0
 32 27  1  0
  1 35  1  0
  1 36  1  0
  1 37  1  0
  3 38  1  0
  3 39  1  0
  3 40  1  0
  4 41  1  0
  4 42  1  0
  4 43  1  0
  6 44  1  0
  7 45  1  0
 13 46  1  0
 14 47  1  0
 15 48  1  0
 17 49  1  0
 20 50  1  0
 21 51  1  0
 22 52  1  0
 22 53  1  0
 23 54  1  0
 23 55  1  0
 24 56  1  0
 24 57  1  0
 25 58  1  0
 25 59  1  0
 26 60  1  0
 26 61  1  0
 28 62  1  0
 29 63  1  0
 30 64  1  0
 32 65  1  0
 33 66  1  0
 34 67  1  0
M  END
>  <meeko>  (5) 
{"free_energy": -8.925, "intermolecular_energy": -11.311, "internal_energy": -3.295}

$$$$

     RDKit          3D

 67 70  0  0  0  0  0  0  0  0999 V2000
  -22.6120   19.1160  -29.8880 C   0  0  0  0  0  0  0  0  0  0  0  0
  -21.4580   18.1240  -29.7120 C   0  0  0  0  0  0  0  0  0  0  0  0
  -21.6290   16.9990  -30.7540 C   0  0  0  0  0  0  0  0  0  0  0  0
  -20.1290   18.8210  -29.9890 C   0  0  0  0  0  0  0  0  0  0  0  0
  -21.4910   17.6140  -28.2240 C   0  0  0  0  0  0  0  0  0  0  0  0
  -22.7050   17.2130  -27.6520 C   0  0  0  0  0  0  0  0  0  0  0  0
  -22.7400   16.7540  -26.3290 C   0  0  0  0  0  0  0  0  0  0  0  0
  -21.5520   16.6850  -25.5940 C   0  0  0  0  0  0  0  0  0  0  0  0
  -21.6270   16.1960  -24.1980 N   0  0  0  0  0  0  0  0  0  0  0  0
  -22.0060   17.0470  -23.0620 C   0  0  0  0  0  0  0  0  0  0  0  0
  -23.1280   16.9900  -22.6950 O   0  0  0  0  0  0  0  0  0  0  0  0
  -20.9910   17.9860  -22.3710 C   0  0  0  0  0  0  0  0  0  0  0  0
  -20.3300   19.0800  -22.8960 C   0  0  0  0  0  0  0  0  0  0  0  0
  -19.5770   19.6060  -21.9370 N   0  0  0  0  0  0  0  0  0  0  0  0
  -19.7530   18.8690  -20.8420 C   0  0  0  0  0  0  0  0  0  0  0  0
  -20.6280   17.8790  -21.1110 N   0  0  0  0  0  0  0  0  0  0  0  0
  -21.4690   14.7850  -24.0020 C   0  0  0  0  0  0  0  0  0  0  0  0
  -20.9800   14.1620  -25.3420 C   0  0  0  0  0  0  0  0  0  0  0  0
  -19.8160   13.9180  -25.5330 O   0  0  0  0  0  0  0  0  0  0  0  0
  -22.0100   13.8380  -26.3430 N   0  0  0  0  0  0  0  0  0  0  0  0
  -21.7100   13.2420  -27.6220 C   0  0  0  0  0  0  0  0  0  0  0  0
  -23.0500   12.9140  -28.2750 C   0  0  0  0  0  0  0  0  0  0  0  0
  -22.8770   12.3760  -29.6940 C   0  0  0  0  0  0  0  0  0  0  0  0
  -22.1820   13.4020  -30.5410 C   0  0  0  0  0  0  0  0  0  0  0  0
  -20.8790   13.8940  -29.9470 C   0  0  0  0  0  0  0  0  0  0  0  0
  -20.9490   14.2840  -28.4610 C   0  0  0  0  0  0  0  0  0  0  0  0
  -20.4200   14.3150  -23.0390 C   0  0  0  0  0  0  0  0  0  0  0  0
  -19.2630   15.0080  -22.9710 C   0  0  0  0  0  0  0  0  0  0  0  0
  -18.3090   14.6180  -22.0650 C   0  0  0  0  0  0  0  0  0  0  0  0
  -18.5490   13.5330  -21.2440 C   0  0  0  0  0  0  0  0  0  0  0  0
  -19.7110   12.8620  -21.3200 N   0  0  0  0  0  0  0  0  0  0  0  0
  -20.6420   13.2370  -22.2260 C   0  0  0  0  0  0  0  0  0  0  0  0
  -20.3510   17.0830  -26.1480 C   0  0  0  0  0  0  0  0  0  0  0  0
  -20.3160   17.5450  -27.4760 C   0  0  0  0  0  0  0  0  0  0  0  0
  -22.9786   19.4311  -28.8999 H   0  0  0  0  0  0  0  0  0  0  0  0
  -22.2576   19.9957  -30.4452 H   0  0  0  0  0  0  0  0  0  0  0  0
  -23.4285   18.6335  -30.4452 H   0  0  0  0  0  0  0  0  0  0  0  0
  -21.7749   16.0392  -30.2368 H   0  0  0  0  0  0  0  0  0  0  0  0
  -22.5050   17.2128  -31.3841 H   0  0  0  0  0  0  0  0  0  0  0  0
  -20.7291   16.9429  -31.3841 H   0  0  0  0  0  0  0  0  0  0  0  0
  -19.6430   19.0759  -29.0357 H   0  0  0  0  0  0  0  0  0  0  0  0
  -19.4759   18.1494  -30.5655 H   0  0  0  0  0  0  0  0  0  0  0  0
  -20.3102   19.7401  -30.5655 H   0  0  0  0  0  0  0  0  0  0  0  0
  -23.6320   17.2586  -28.2424 H   0  0  0  0  0  0  0  0  0  0  0  0
  -23.6935   16.4505  -25.8721 H   0  0  0  0  0  0  0  0  0  0  0  0
  -20.4131   19.4506  -23.9284 H   0  0  0  0  0  0  0  0  0  0  0  0
  -18.9685   20.4324  -22.0241 H   0  0  0  0  0  0  0  0  0  0  0  0
  -19.2626   19.0405  -19.8724 H   0  0  0  0  0  0  0  0  0  0  0  0
  -22.4550   14.4895  -23.6141 H   0  0  0  0  0  0  0  0  0  0  0  0
  -22.8300   14.0130  -26.1560 H   0  0  0  0  0  0  0  0  0  0  0  0
  -21.0962   12.3336  -27.5324 H   0  0  0  0  0  0  0  0  0  0  0  0
  -23.5651   12.1552  -27.6676 H   0  0  0  0  0  0  0  0  0  0  0  0
  -23.6370   13.8425  -28.3322 H   0  0  0  0  0  0  0  0  0  0  0  0
  -22.2747   11.4560  -29.6657 H   0  0  0  0  0  0  0  0  0  0  0  0
  -23.8653   12.1564  -30.1241 H   0  0  0  0  0  0  0  0  0  0  0  0
  -21.9700   12.9562  -31.5240 H   0  0  0  0  0  0  0  0  0  0  0  0
  -22.8531   14.2706  -30.6126 H   0  0  0  0  0  0  0  0  0  0  0  0
  -20.1312   13.0946  -30.0552 H   0  0  0  0  0  0  0  0  0  0  0  0
  -20.6188   14.8121  -30.4941 H   0  0  0  0  0  0  0  0  0  0  0  0
  -19.9249   14.3744  -28.0698 H   0  0  0  0  0  0  0  0  0  0  0  0
  -21.4912   15.2383  -28.3874 H   0  0  0  0  0  0  0  0  0  0  0  0
  -19.0882   15.8706  -23.6308 H   0  0  0  0  0  0  0  0  0  0  0  0
  -17.3582   15.1663  -21.9928 H   0  0  0  0  0  0  0  0  0  0  0  0
  -17.7823   13.2156  -20.5219 H   0  0  0  0  0  0  0  0  0  0  0  0
  -21.5825   12.6727  -22.3099 H   0  0  0  0  0  0  0  0  0  0  0  0
  -19.4265   17.0389  -25.5536 H   0  0  0  0  0  0  0  0  0  0  0  0
  -19.3602   17.8524  -27.9254 H   0  0  0  0  0  0  0  0  0  0  0  0
  1  2  1  0
  2  3  1  0
  2  4  1  0
  2  5  1  0
  5  6  2  0
  6  7  1  0
  7  8  2  0
  8  9  1  0
  9 10  1  0
 10 11  2  0
 10 12  1  0
 12 13  2  0
 13 14  1  0
 14 15  1  0
 15 16  2  0
  9 17  1  0
 17 18  1  0
 18 19  2  0
 18 20  1  0
 20 21  1  0
 21 22  1  0
 22 23  1  0
 23 24  1  0
 24 25  1  0
 25 26  1  0
 17 27  1  0
 27 28  2  0
 28 29  1  0
 29 30  2  0
 30 31  1  0
 31 32  2  0
  8 33  1  0
 33 34  2  0
 34  5  1  0
 16 12  1  0
 26 21  1  0
 32 27  1  0
  1 35  1  0
  1 36  1  0
  1 37  1  0
  3 38  1  0
  3 39  1  0
  3 40  1  0
  4 41  1  0
  4 42  1  0
  4 43  1  0
  6 44  1  0
  7 45  1  0
 13 46  1  0
 14 47  1  0
 15 48  1  0
 17 49  1  0
 20 50  1  0
 21 51  1  0
 22 52  1  0
 22 53  1  0
 23 54  1  0
 23 55  1  0
 24 56  1  0
 24 57  1  0
 25 58  1  0
 25 59  1  0
 26 60  1  0
 26 61  1  0
 28 62  1  0
 29 63  1  0
 30 64  1  0
 32 65  1  0
 33 66  1  0
 34 67  1  0
M  END
>  <meeko>  (6) 
{"free_energy": -8.336, "intermolecular_energy": -10.722, "internal_energy": -3.321}

$$$$

     RDKit          3D

 67 70  0  0  0  0  0  0  0  0999 V2000
  -16.3820   20.7570  -27.7030 C   0  0  0  0  0  0  0  0  0  0  0  0
  -17.8290   21.1480  -27.3850 C   0  0  0  0  0  0  0  0  0  0  0  0
  -17.8220   22.0120  -26.1060 C   0  0  0  0  0  0  0  0  0  0  0  0
  -18.3980   21.9950  -28.5190 C   0  0  0  0  0  0  0  0  0  0  0  0
  -18.6600   19.8200  -27.2420 C   0  0  0  0  0  0  0  0  0  0  0  0
  -19.2070   19.2150  -28.3800 C   0  0  0  0  0  0  0  0  0  0  0  0
  -19.9440   18.0300  -28.2590 C   0  0  0  0  0  0  0  0  0  0  0  0
  -20.1140   17.4530  -26.9970 C   0  0  0  0  0  0  0  0  0  0  0  0
  -20.9010   16.2010  -26.9060 N   0  0  0  0  0  0  0  0  0  0  0  0
  -20.3950   14.8940  -27.3480 C   0  0  0  0  0  0  0  0  0  0  0  0
  -19.3610   14.5370  -26.9010 O   0  0  0  0  0  0  0  0  0  0  0  0
  -21.1700   14.0160  -28.3560 C   0  0  0  0  0  0  0  0  0  0  0  0
  -21.1220   14.0400  -29.7370 C   0  0  0  0  0  0  0  0  0  0  0  0
  -21.9310   13.0910  -30.1940 N   0  0  0  0  0  0  0  0  0  0  0  0
  -22.4730   12.4870  -29.1390 C   0  0  0  0  0  0  0  0  0  0  0  0
  -21.9970   13.0530  -28.0120 N   0  0  0  0  0  0  0  0  0  0  0  0
  -22.1500   16.2750  -26.2080 C   0  0  0  0  0  0  0  0  0  0  0  0
  -21.8820   15.9780  -24.7030 C   0  0  0  0  0  0  0  0  0  0  0  0
  -22.7560   16.0670  -23.8790 O   0  0  0  0  0  0  0  0  0  0  0  0
  -20.5250   15.5340  -24.3420 N   0  0  0  0  0  0  0  0  0  0  0  0
  -20.1320   15.2070  -22.9930 C   0  0  0  0  0  0  0  0  0  0  0  0
  -21.1080   14.1400  -22.5020 C   0  0  0  0  0  0  0  0  0  0  0  0
  -20.7340   13.6200  -21.1150 C   0  0  0  0  0  0  0  0  0  0  0  0
  -19.3610   13.0150  -21.1570 C   0  0  0  0  0  0  0  0  0  0  0  0
  -18.3090   13.9420  -21.7300 C   0  0  0  0  0  0  0  0  0  0  0  0
  -18.7030   14.6390  -23.0420 C   0  0  0  0  0  0  0  0  0  0  0  0
  -22.8500   17.6000  -26.1430 C   0  0  0  0  0  0  0  0  0  0  0  0
  -23.6980   17.9210  -27.1420 C   0  0  0  0  0  0  0  0  0  0  0  0
  -24.3790   19.1100  -27.0780 C   0  0  0  0  0  0  0  0  0  0  0  0
  -24.1870   19.9510  -25.9980 C   0  0  0  0  0  0  0  0  0  0  0  0
  -23.3440   19.6090  -25.0090 N   0  0  0  0  0  0  0  0  0  0  0  0
  -22.6600   18.4460  -25.0840 C   0  0  0  0  0  0  0  0  0  0  0  0
  -19.5830   18.0450  -25.8670 C   0  0  0  0  0  0  0  0  0  0  0  0
  -18.8430   19.2350  -25.9900 C   0  0  0  0  0  0  0  0  0  0  0  0
  -15.8280   20.6073  -26.7646 H   0  0  0  0  0  0  0  0  0  0  0  0
  -16.3739   19.8245  -28.2864 H   0  0  0  0  0  0  0  0  0  0  0  0
  -15.9053   21.5586  -28.2864 H   0  0  0  0  0  0  0  0  0  0  0  0
  -17.8273   21.3579  -25.2216 H   0  0  0  0  0  0  0  0  0  0  0  0
  -16.9187   22.6396  -26.0924 H   0  0  0  0  0  0  0  0  0  0  0  0
  -18.7150   22.6542  -26.0924 H   0  0  0  0  0  0  0  0  0  0  0  0
  -18.9647   22.8385  -28.0979 H   0  0  0  0  0  0  0  0  0  0  0  0
  -17.5743   22.3795  -29.1384 H   0  0  0  0  0  0  0  0  0  0  0  0
  -19.0654   21.3778  -29.1384 H   0  0  0  0  0  0  0  0  0  0  0  0
  -19.0578   19.6707  -29.3700 H   0  0  0  0  0  0  0  0  0  0  0  0
  -20.3851   17.5576  -29.1491 H   0  0  0  0  0  0  0  0  0  0  0  0
  -20.5190   14.7255  -30.3506 H   0  0  0  0  0  0  0  0  0  0  0  0
  -22.1067   12.8641  -31.1832 H   0  0  0  0  0  0  0  0  0  0  0  0
  -23.1946   11.6578  -29.1802 H   0  0  0  0  0  0  0  0  0  0  0  0
  -22.7795   15.5759  -26.7780 H   0  0  0  0  0  0  0  0  0  0  0  0
  -19.9380   15.4680  -24.9660 H   0  0  0  0  0  0  0  0  0  0  0  0
  -20.1499   16.0796  -22.3235 H   0  0  0  0  0  0  0  0  0  0  0  0
  -22.1175   14.5747  -22.4584 H   0  0  0  0  0  0  0  0  0  0  0  0
  -21.0700   13.2944  -23.2045 H   0  0  0  0  0  0  0  0  0  0  0  0
  -20.7451   14.4529  -20.3966 H   0  0  0  0  0  0  0  0  0  0  0  0
  -21.4607   12.8551  -20.8036 H   0  0  0  0  0  0  0  0  0  0  0  0
  -19.0673   12.7468  -20.1314 H   0  0  0  0  0  0  0  0  0  0  0  0
  -19.4142   12.1380  -21.8188 H   0  0  0  0  0  0  0  0  0  0  0  0
  -18.0948   14.7192  -20.9816 H   0  0  0  0  0  0  0  0  0  0  0  0
  -17.4391   13.3115  -21.9659 H   0  0  0  0  0  0  0  0  0  0  0  0
  -18.0002   15.4642  -23.2295 H   0  0  0  0  0  0  0  0  0  0  0  0
  -18.6652   13.8898  -23.8465 H   0  0  0  0  0  0  0  0  0  0  0  0
  -23.8410   17.2402  -27.9941 H   0  0  0  0  0  0  0  0  0  0  0  0
  -25.0744   19.3928  -27.8821 H   0  0  0  0  0  0  0  0  0  0  0  0
  -24.7283   20.9073  -25.9477 H   0  0  0  0  0  0  0  0  0  0  0  0
  -21.9472   18.1780  -24.2902 H   0  0  0  0  0  0  0  0  0  0  0  0
  -19.7379   17.5889  -24.8781 H   0  0  0  0  0  0  0  0  0  0  0  0
  -18.4076   19.7051  -25.0959 H   0  0  0  0  0  0  0  0  0  0  0  0
  1  2  1  0
  2  3  1  0
  2  4  1  0
  2  5  1  0
  5  6  2  0
  6  7  1  0
  7  8  2  0
  8  9  1  0
  9 10  1  0
 10 11  2  0
 10 12  1  0
 12 13  2  0
 13 14  1  0
 14 15  1  0
 15 16  2  0
  9 17  1  0
 17 18  1  0
 18 19  2  0
 18 20  1  0
 20 21  1  0
 21 22  1  0
 22 23  1  0
 23 24  1  0
 24 25  1  0
 25 26  1  0
 17 27  1  0
 27 28  2  0
 28 29  1  0
 29 30  2  0
 30 31  1  0
 31 32  2  0
  8 33  1  0
 33 34  2  0
 34  5  1  0
 16 12  1  0
 26 21  1  0
 32 27  1  0
  1 35  1  0
  1 36  1  0
  1 37  1  0
  3 38  1  0
  3 39  1  0
  3 40  1  0
  4 41  1  0
  4 42  1  0
  4 43  1  0
  6 44  1  0
  7 45  1  0
 13 46  1  0
 14 47  1  0
 15 48  1  0
 17 49  1  0
 20 50  1  0
 21 51  1  0
 22 52  1  0
 22 53  1  0
 23 54  1  0
 23 55  1  0
 24 56  1  0
 24 57  1  0
 25 58  1  0
 25 59  1  0
 26 60  1  0
 26 61  1  0
 28 62  1  0
 29 63  1  0
 30 64  1  0
 32 65  1  0
 33 66  1  0
 34 67  1  0
M  END
>  <meeko>  (7) 
{"free_energy": -8.233, "intermolecular_energy": -10.62, "internal_energy": -3.237}

$$$$

     RDKit          3D

 67 70  0  0  0  0  0  0  0  0999 V2000
  -21.2520   17.6960  -20.8400 C   0  0  0  0  0  0  0  0  0  0  0  0
  -22.3020   17.9500  -21.9260 C   0  0  0  0  0  0  0  0  0  0  0  0
  -23.5710   17.1500  -21.5620 C   0  0  0  0  0  0  0  0  0  0  0  0
  -22.6730   19.4300  -21.9530 C   0  0  0  0  0  0  0  0  0  0  0  0
  -21.6710   17.5330  -23.3060 C   0  0  0  0  0  0  0  0  0  0  0  0
  -22.5010   17.1320  -24.3590 C   0  0  0  0  0  0  0  0  0  0  0  0
  -21.9440   16.7640  -25.5910 C   0  0  0  0  0  0  0  0  0  0  0  0
  -20.5570   16.8170  -25.7600 C   0  0  0  0  0  0  0  0  0  0  0  0
  -20.0030   16.4190  -27.0760 N   0  0  0  0  0  0  0  0  0  0  0  0
  -19.3790   17.3660  -28.0090 C   0  0  0  0  0  0  0  0  0  0  0  0
  -19.1500   16.9770  -29.1010 O   0  0  0  0  0  0  0  0  0  0  0  0
  -19.0260   18.8120  -27.5920 C   0  0  0  0  0  0  0  0  0  0  0  0
  -19.4570   20.0010  -28.1500 C   0  0  0  0  0  0  0  0  0  0  0  0
  -18.9250   20.9990  -27.4530 N   0  0  0  0  0  0  0  0  0  0  0  0
  -18.1830   20.4610  -26.4890 C   0  0  0  0  0  0  0  0  0  0  0  0
  -18.2530   19.1180  -26.5720 N   0  0  0  0  0  0  0  0  0  0  0  0
  -19.9490   15.0140  -27.3530 C   0  0  0  0  0  0  0  0  0  0  0  0
  -20.3400   14.2490  -26.0540 C   0  0  0  0  0  0  0  0  0  0  0  0
  -21.3630   13.6180  -25.9810 O   0  0  0  0  0  0  0  0  0  0  0  0
  -19.3780   14.2910  -24.9390 N   0  0  0  0  0  0  0  0  0  0  0  0
  -19.5950   13.6180  -23.6820 C   0  0  0  0  0  0  0  0  0  0  0  0
  -18.5350   14.1440  -22.7180 C   0  0  0  0  0  0  0  0  0  0  0  0
  -18.7220   13.5900  -21.3070 C   0  0  0  0  0  0  0  0  0  0  0  0
  -20.0710   13.9900  -20.7840 C   0  0  0  0  0  0  0  0  0  0  0  0
  -21.2130   13.6180  -21.7070 C   0  0  0  0  0  0  0  0  0  0  0  0
  -21.0020   13.9920  -23.1830 C   0  0  0  0  0  0  0  0  0  0  0  0
  -20.9160   14.4490  -28.3500 C   0  0  0  0  0  0  0  0  0  0  0  0
  -20.6420   13.2430  -28.8890 C   0  0  0  0  0  0  0  0  0  0  0  0
  -21.5370   12.6910  -29.7710 C   0  0  0  0  0  0  0  0  0  0  0  0
  -22.6960   13.3750  -30.0860 C   0  0  0  0  0  0  0  0  0  0  0  0
  -22.9550   14.5710  -29.5320 N   0  0  0  0  0  0  0  0  0  0  0  0
  -22.0630   15.1210  -28.6780 C   0  0  0  0  0  0  0  0  0  0  0  0
  -19.7290   17.2070  -24.7250 C   0  0  0  0  0  0  0  0  0  0  0  0
  -20.2890   17.5750  -23.4890 C   0  0  0  0  0  0  0  0  0  0  0  0
  -21.7153   17.8081  -19.8487 H   0  0  0  0  0  0  0  0  0  0  0  0
  -20.8545   16.6758  -20.9457 H   0  0  0  0  0  0  0  0  0  0  0  0
  -20.4322   18.4217  -20.9457 H   0  0  0  0  0  0  0  0  0  0  0  0
  -23.6656   17.0904  -20.4677 H   0  0  0  0  0  0  0  0  0  0  0  0
  -24.4548   17.6545  -21.9795 H   0  0  0  0  0  0  0  0  0  0  0  0
  -23.4969   16.1350  -21.9795 H   0  0  0  0  0  0  0  0  0  0  0  0
  -22.7666   19.8034  -20.9226 H   0  0  0  0  0  0  0  0  0  0  0  0
  -21.8887   19.9951  -22.4780 H   0  0  0  0  0  0  0  0  0  0  0  0
  -23.6311   19.5583  -22.4780 H   0  0  0  0  0  0  0  0  0  0  0  0
  -23.5918   17.1057  -24.2194 H   0  0  0  0  0  0  0  0  0  0  0  0
  -22.5918   16.4365  -26.4175 H   0  0  0  0  0  0  0  0  0  0  0  0
  -20.1237   20.1029  -29.0190 H   0  0  0  0  0  0  0  0  0  0  0  0
  -19.0620   22.0049  -27.6271 H   0  0  0  0  0  0  0  0  0  0  0  0
  -17.6038   21.0236  -25.7421 H   0  0  0  0  0  0  0  0  0  0  0  0
  -18.9300   14.8913  -27.7486 H   0  0  0  0  0  0  0  0  0  0  0  0
  -18.6520   14.7400  -25.0440 H   0  0  0  0  0  0  0  0  0  0  0  0
  -19.5231   12.5238  -23.7695 H   0  0  0  0  0  0  0  0  0  0  0  0
  -17.5415   13.8493  -23.0868 H   0  0  0  0  0  0  0  0  0  0  0  0
  -18.6318   15.2387  -22.6697 H   0  0  0  0  0  0  0  0  0  0  0  0
  -18.6496   12.4927  -21.3319 H   0  0  0  0  0  0  0  0  0  0  0  0
  -17.9398   13.9956  -20.6485 H   0  0  0  0  0  0  0  0  0  0  0  0
  -20.2302   13.4929  -19.8157 H   0  0  0  0  0  0  0  0  0  0  0  0
  -20.0711   15.0865  -20.6958 H   0  0  0  0  0  0  0  0  0  0  0  0
  -21.3589   12.5293  -21.6481 H   0  0  0  0  0  0  0  0  0  0  0  0
  -22.0855   14.1941  -21.3650 H   0  0  0  0  0  0  0  0  0  0  0  0
  -21.7472   13.4605  -23.7931 H   0  0  0  0  0  0  0  0  0  0  0  0
  -21.1140   15.0825  -23.2744 H   0  0  0  0  0  0  0  0  0  0  0  0
  -19.7161   12.7106  -28.6258 H   0  0  0  0  0  0  0  0  0  0  0  0
  -21.3331   11.7098  -30.2246 H   0  0  0  0  0  0  0  0  0  0  0  0
  -23.4123   12.9363  -30.7963 H   0  0  0  0  0  0  0  0  0  0  0  0
  -22.2595   16.1128  -28.2447 H   0  0  0  0  0  0  0  0  0  0  0  0
  -18.6385   17.2294  -24.8671 H   0  0  0  0  0  0  0  0  0  0  0  0
  -19.6357   17.8967  -22.6645 H   0  0  0  0  0  0  0  0  0  0  0  0
  1  2  1  0
  2  3  1  0
  2  4  1  0
  2  5  1  0
  5  6  2  0
  6  7  1  0
  7  8  2  0
  8  9  1  0
  9 10  1  0
 10 11  2  0
 10 12  1  0
 12 13  2  0
 13 14  1  0
 14 15  1  0
 15 16  2  0
  9 17  1  0
 17 18  1  0
 18 19  2  0
 18 20  1  0
 20 21  1  0
 21 22  1  0
 22 23  1  0
 23 24  1  0
 24 25  1  0
 25 26  1  0
 17 27  1  0
 27 28  2  0
 28 29  1  0
 29 30  2  0
 30 31  1  0
 31 32  2  0
  8 33  1  0
 33 34  2  0
 34  5  1  0
 16 12  1  0
 26 21  1  0
 32 27  1  0
  1 35  1  0
  1 36  1  0
  1 37  1  0
  3 38  1  0
  3 39  1  0
  3 40  1  0
  4 41  1  0
  4 42  1  0
  4 43  1  0
  6 44  1  0
  7 45  1  0
 13 46  1  0
 14 47  1  0
 15 48  1  0
 17 49  1  0
 20 50  1  0
 21 51  1  0
 22 52  1  0
 22 53  1  0
 23 54  1  0
 23 55  1  0
 24 56  1  0
 24 57  1  0
 25 58  1  0
 25 59  1  0
 26 60  1  0
 26 61  1  0
 28 62  1  0
 29 63  1  0
 30 64  1  0
 32 65  1  0
 33 66  1  0
 34 67  1  0
M  END
>  <meeko>  (8) 
{"free_energy": -8.076, "intermolecular_energy": -10.463, "internal_energy": -3.29}

$$$$

     RDKit          3D

 67 70  0  0  0  0  0  0  0  0999 V2000
  -21.0500   15.7780  -21.0020 C   0  0  0  0  0  0  0  0  0  0  0  0
  -20.9180   14.3880  -21.6330 C   0  0  0  0  0  0  0  0  0  0  0  0
  -19.8160   13.6190  -20.8730 C   0  0  0  0  0  0  0  0  0  0  0  0
  -22.2250   13.6180  -21.4700 C   0  0  0  0  0  0  0  0  0  0  0  0
  -20.6040   14.5880  -23.1620 C   0  0  0  0  0  0  0  0  0  0  0  0
  -19.3120   14.9430  -23.5670 C   0  0  0  0  0  0  0  0  0  0  0  0
  -19.0260   15.1180  -24.9280 C   0  0  0  0  0  0  0  0  0  0  0  0
  -20.0370   14.9200  -25.8720 C   0  0  0  0  0  0  0  0  0  0  0  0
  -19.7000   15.1150  -27.3020 N   0  0  0  0  0  0  0  0  0  0  0  0
  -19.7230   14.0310  -28.2930 C   0  0  0  0  0  0  0  0  0  0  0  0
  -18.6890   13.7040  -28.7610 O   0  0  0  0  0  0  0  0  0  0  0  0
  -21.0400   13.3420  -28.7190 C   0  0  0  0  0  0  0  0  0  0  0  0
  -21.2650   12.4930  -29.7860 C   0  0  0  0  0  0  0  0  0  0  0  0
  -22.5370   12.1170  -29.7520 N   0  0  0  0  0  0  0  0  0  0  0  0
  -23.1000   12.7070  -28.7010 C   0  0  0  0  0  0  0  0  0  0  0  0
  -22.1760   13.4540  -28.0640 N   0  0  0  0  0  0  0  0  0  0  0  0
  -19.4970   16.4660  -27.7360 C   0  0  0  0  0  0  0  0  0  0  0  0
  -20.5200   16.7680  -28.8700 C   0  0  0  0  0  0  0  0  0  0  0  0
  -20.2320   17.4720  -29.8050 O   0  0  0  0  0  0  0  0  0  0  0  0
  -21.8360   16.1150  -28.7740 N   0  0  0  0  0  0  0  0  0  0  0  0
  -22.8780   16.2860  -29.7570 C   0  0  0  0  0  0  0  0  0  0  0  0
  -23.1010   17.7900  -29.8980 C   0  0  0  0  0  0  0  0  0  0  0  0
  -24.1090   18.1160  -30.9970 C   0  0  0  0  0  0  0  0  0  0  0  0
  -23.6090   17.5920  -32.3120 C   0  0  0  0  0  0  0  0  0  0  0  0
  -23.2470   16.1220  -32.2780 C   0  0  0  0  0  0  0  0  0  0  0  0
  -22.3760   15.6950  -31.0860 C   0  0  0  0  0  0  0  0  0  0  0  0
  -19.7740   17.5730  -26.7640 C   0  0  0  0  0  0  0  0  0  0  0  0
  -21.0580   17.8210  -26.4310 C   0  0  0  0  0  0  0  0  0  0  0  0
  -21.3270   18.8030  -25.5110 C   0  0  0  0  0  0  0  0  0  0  0  0
  -20.2850   19.5120  -24.9430 C   0  0  0  0  0  0  0  0  0  0  0  0
  -19.0130   19.2430  -25.2810 N   0  0  0  0  0  0  0  0  0  0  0  0
  -18.7520   18.2890  -26.2020 C   0  0  0  0  0  0  0  0  0  0  0  0
  -21.3170   14.5740  -25.4820 C   0  0  0  0  0  0  0  0  0  0  0  0
  -21.6030   14.4000  -24.1160 C   0  0  0  0  0  0  0  0  0  0  0  0
  -21.0412   15.6854  -19.9059 H   0  0  0  0  0  0  0  0  0  0  0  0
  -20.2077   16.4081  -21.3235 H   0  0  0  0  0  0  0  0  0  0  0  0
  -21.9959   16.2383  -21.3235 H   0  0  0  0  0  0  0  0  0  0  0  0
  -19.9730   13.7285  -19.7898 H   0  0  0  0  0  0  0  0  0  0  0  0
  -19.8589   12.5537  -21.1439 H   0  0  0  0  0  0  0  0  0  0  0  0
  -18.8309   14.0268  -21.1439 H   0  0  0  0  0  0  0  0  0  0  0  0
  -22.4436   13.4892  -20.3997 H   0  0  0  0  0  0  0  0  0  0  0  0
  -23.0427   14.1787  -21.9464 H   0  0  0  0  0  0  0  0  0  0  0  0
  -22.1310   12.6310  -21.9464 H   0  0  0  0  0  0  0  0  0  0  0  0
  -18.5204   15.0848  -22.8165 H   0  0  0  0  0  0  0  0  0  0  0  0
  -18.0151   15.4085  -25.2499 H   0  0  0  0  0  0  0  0  0  0  0  0
  -20.5196   12.1830  -30.5332 H   0  0  0  0  0  0  0  0  0  0  0  0
  -23.0032   11.4841  -30.4176 H   0  0  0  0  0  0  0  0  0  0  0  0
  -24.1526   12.6020  -28.3995 H   0  0  0  0  0  0  0  0  0  0  0  0
  -18.4242   16.4769  -27.9790 H   0  0  0  0  0  0  0  0  0  0  0  0
  -21.9910   15.6060  -28.0990 H   0  0  0  0  0  0  0  0  0  0  0  0
  -23.8150   15.7852  -29.4718 H   0  0  0  0  0  0  0  0  0  0  0  0
  -23.4767   18.1848  -28.9425 H   0  0  0  0  0  0  0  0  0  0  0  0
  -22.1405   18.2529  -30.1685 H   0  0  0  0  0  0  0  0  0  0  0  0
  -25.0746   17.6458  -30.7591 H   0  0  0  0  0  0  0  0  0  0  0  0
  -24.2363   19.2066  -31.0635 H   0  0  0  0  0  0  0  0  0  0  0  0
  -24.3950   17.7397  -33.0672 H   0  0  0  0  0  0  0  0  0  0  0  0
  -22.6898   18.1462  -32.5528 H   0  0  0  0  0  0  0  0  0  0  0  0
  -24.1806   15.5414  -32.2437 H   0  0  0  0  0  0  0  0  0  0  0  0
  -22.6474   15.9321  -33.1805 H   0  0  0  0  0  0  0  0  0  0  0  0
  -22.3893   14.5975  -31.0129 H   0  0  0  0  0  0  0  0  0  0  0  0
  -21.3576   16.0728  -31.2599 H   0  0  0  0  0  0  0  0  0  0  0  0
  -21.8756   17.2454  -26.8895 H   0  0  0  0  0  0  0  0  0  0  0  0
  -22.3663   19.0248  -25.2270 H   0  0  0  0  0  0  0  0  0  0  0  0
  -20.4991   20.3025  -24.2086 H   0  0  0  0  0  0  0  0  0  0  0  0
  -17.7130   18.0870  -26.5014 H   0  0  0  0  0  0  0  0  0  0  0  0
  -22.1068   14.4356  -26.2350 H   0  0  0  0  0  0  0  0  0  0  0  0
  -22.6172   14.1149  -23.7997 H   0  0  0  0  0  0  0  0  0  0  0  0
  1  2  1  0
  2  3  1  0
  2  4  1  0
  2  5  1  0
  5  6  2  0
  6  7  1  0
  7  8  2  0
  8  9  1  0
  9 10  1  0
 10 11  2  0
 10 12  1  0
 12 13  2  0
 13 14  1  0
 14 15  1  0
 15 16  2  0
  9 17  1  0
 17 18  1  0
 18 19  2  0
 18 20  1  0
 20 21  1  0
 21 22  1  0
 22 23  1  0
 23 24  1  0
 24 25  1  0
 25 26  1  0
 17 27  1  0
 27 28  2  0
 28 29  1  0
 29 30  2  0
 30 31  1  0
 31 32  2  0
  8 33  1  0
 33 34  2  0
 34  5  1  0
 16 12  1  0
 26 21  1  0
 32 27  1  0
  1 35  1  0
  1 36  1  0
  1 37  1  0
  3 38  1  0
  3 39  1  0
  3 40  1  0
  4 41  1  0
  4 42  1  0
  4 43  1  0
  6 44  1  0
  7 45  1  0
 13 46  1  0
 14 47  1  0
 15 48  1  0
 17 49  1  0
 20 50  1  0
 21 51  1  0
 22 52  1  0
 22 53  1  0
 23 54  1  0
 23 55  1  0
 24 56  1  0
 24 57  1  0
 25 58  1  0
 25 59  1  0
 26 60  1  0
 26 61  1  0
 28 62  1  0
 29 63  1  0
 30 64  1  0
 32 65  1  0
 33 66  1  0
 34 67  1  0
M  END
>  <meeko>  (9) 
{"free_energy": -7.846, "intermolecular_energy": -10.232, "internal_energy": -3.815}

$$$$

