REMARK SMILES CC(C)(C)c1ccc(N(C(=O)c2c[nH]cn2)C(C(=O)NC2CCCCC2)c2cccnc2)cc1
REMARK SMILES IDX 17 1 9 2 10 3 11 4 12 5 16 6 13 7 15 8 14 9 8 10 33 11 7 12
REMARK SMILES IDX 34 13 6 14 5 15 2 16 4 17 3 18 1 19 27 20 32 21 28 22 31 23
REMARK SMILES IDX 29 24 30 25 18 26 19 27 20 28 21 30 26 31 22 32 25 33 23 34
REMARK SMILES IDX 24 35
REMARK H PARENT 20 29
REMARK Flexibility Score: inf
ROOT
ATOM      1  C   UNL     1     -19.682  20.621 -26.849  1.00  0.00     0.212 C 
ENDROOT
BRANCH   1   2
ATOM      2  N   UNL     1     -19.915  20.161 -28.186  1.00  0.00    -0.290 N 
BRANCH   2   3
ATOM      3  C   UNL     1     -19.908  21.124 -29.295  1.00  0.00     0.279 C 
ATOM      4  O   UNL     1     -19.635  22.244 -29.036  1.00  0.00    -0.267 OA
BRANCH   3   5
ATOM      5  C   UNL     1     -20.246  20.704 -30.744  1.00  0.00     0.146 A 
ATOM      6  N   UNL     1     -20.218  21.522 -31.774  1.00  0.00    -0.232 NA
ATOM      7  C   UNL     1     -20.656  19.470 -31.212  1.00  0.00     0.118 A 
ATOM      8  C   UNL     1     -20.588  20.828 -32.869  1.00  0.00     0.197 A 
ATOM      9  N   UNL     1     -20.860  19.573 -32.520  1.00  0.00    -0.350 N 
ENDBRANCH   3   5
ENDBRANCH   2   3
BRANCH   2  10
ATOM     10  C   UNL     1     -20.313  18.742 -28.341  1.00  0.00     0.045 A 
ATOM     11  C   UNL     1     -19.389  17.775 -28.688  1.00  0.00     0.027 A 
ATOM     12  C   UNL     1     -21.658  18.414 -28.147  1.00  0.00     0.027 A 
ATOM     13  C   UNL     1     -19.802  16.438 -28.829  1.00  0.00     0.006 A 
ATOM     14  C   UNL     1     -22.069  17.082 -28.287  1.00  0.00     0.006 A 
ATOM     15  C   UNL     1     -21.139  16.094 -28.633  1.00  0.00    -0.042 A 
BRANCH  15  16
ATOM     16  C   UNL     1     -21.605  14.599 -28.784  1.00  0.00    -0.013 C 
ATOM     17  C   UNL     1     -22.582  14.477 -29.950  1.00  0.00     0.016 C 
ATOM     18  C   UNL     1     -20.444  13.613 -29.034  1.00  0.00     0.016 C 
ATOM     19  C   UNL     1     -22.299  14.196 -27.479  1.00  0.00     0.016 C 
ENDBRANCH  15  16
ENDBRANCH   2  10
ENDBRANCH   1   2
BRANCH   1  20
ATOM     20  C   UNL     1     -18.425  21.391 -26.572  1.00  0.00     0.003 A 
ATOM     21  C   UNL     1     -17.231  21.012 -27.123  1.00  0.00     0.117 A 
ATOM     22  C   UNL     1     -18.498  22.448 -25.736  1.00  0.00     0.009 A 
ATOM     23  N   UNL     1     -16.096  21.679 -26.816  1.00  0.00    -0.264 NA
ATOM     24  C   UNL     1     -17.350  23.138 -25.438  1.00  0.00     0.020 A 
ATOM     25  C   UNL     1     -16.149  22.739 -25.993  1.00  0.00     0.111 A 
ENDBRANCH   1  20
BRANCH   1  26
ATOM     26  C   UNL     1     -19.506  19.375 -25.932  1.00  0.00     0.248 C 
ATOM     27  O   UNL     1     -18.546  18.654 -26.029  1.00  0.00    -0.272 OA
ATOM     28  N   UNL     1     -20.540  19.148 -24.908  1.00  0.00    -0.351 N 
ATOM     29  H   UNL     1     -21.198  19.699 -24.864  1.00  0.00     0.163 HD
BRANCH  28  30
ATOM     30  C   UNL     1     -20.503  18.047 -23.977  1.00  0.00     0.082 C 
ATOM     31  C   UNL     1     -21.457  16.957 -24.497  1.00  0.00     0.025 C 
ATOM     32  C   UNL     1     -21.000  18.590 -22.640  1.00  0.00     0.025 C 
ATOM     33  C   UNL     1     -21.763  15.895 -23.429  1.00  0.00     0.002 C 
ATOM     34  C   UNL     1     -21.117  17.491 -21.586  1.00  0.00     0.002 C 
ATOM     35  C   UNL     1     -22.085  16.444 -22.055  1.00  0.00     0.000 C 
ENDBRANCH  28  30
ENDBRANCH   1  26
TORSDOF 8

