MODEL 1
REMARK VINA RESULT:    -9.320      0.000      0.000
REMARK INTER + INTRA:         -15.038
REMARK INTER:                 -11.707
REMARK INTRA:                  -3.331
REMARK CONF_INDEPENDENT:        2.386
REMARK UNBOUND:                 3.331
REMARK SMILES CC(C)(C)c1ccc(N(C(=O)c2c[nH]cn2)C(C(=O)NC2CCCCC2)c2cccnc2)cc1
REMARK SMILES IDX 17 1 9 2 10 3 11 4 12 5 16 6 13 7 15 8 14 9 8 10 33 11 7 12
REMARK SMILES IDX 34 13 6 14 5 15 2 16 4 17 3 18 1 19 27 20 32 21 28 22 31 23
REMARK SMILES IDX 29 24 30 25 18 26 19 27 20 28 21 30 26 31 22 32 25 33 23 34
REMARK SMILES IDX 24 35
REMARK H PARENT 20 29
REMARK Flexibility Score: inf
ROOT
ATOM      1  C   UNL     1     -20.517  15.183 -27.467  1.00  0.00     0.212 C 
ENDROOT
BRANCH   1   2
ATOM      2  N   UNL     1     -21.046  16.348 -26.823  1.00  0.00    -0.290 N 
BRANCH   2   3
ATOM      3  C   UNL     1     -22.394  16.306 -26.243  1.00  0.00     0.279 C 
ATOM      4  O   UNL     1     -23.253  15.839 -26.906  1.00  0.00    -0.267 OA
BRANCH   3   5
ATOM      5  C   UNL     1     -22.692  16.850 -24.826  1.00  0.00     0.146 A 
ATOM      6  N   UNL     1     -22.527  16.156 -23.721  1.00  0.00    -0.232 NA
ATOM      7  C   UNL     1     -23.196  18.085 -24.464  1.00  0.00     0.118 A 
ATOM      8  C   UNL     1     -22.903  16.929 -22.682  1.00  0.00     0.197 A 
ATOM      9  N   UNL     1     -23.317  18.108 -23.142  1.00  0.00    -0.350 N 
ENDBRANCH   3   5
ENDBRANCH   2   3
BRANCH   2  10
ATOM     10  C   UNL     1     -20.242  17.589 -26.928  1.00  0.00     0.045 A 
ATOM     11  C   UNL     1     -19.935  18.138 -28.159  1.00  0.00     0.027 A 
ATOM     12  C   UNL     1     -19.785  18.176 -25.745  1.00  0.00     0.027 A 
ATOM     13  C   UNL     1     -19.168  19.315 -28.222  1.00  0.00     0.006 A 
ATOM     14  C   UNL     1     -19.021  19.349 -25.809  1.00  0.00     0.006 A 
ATOM     15  C   UNL     1     -18.709  19.916 -27.050  1.00  0.00    -0.042 A 
BRANCH  15  16
ATOM     16  C   UNL     1     -17.856  21.236 -27.116  1.00  0.00    -0.013 C 
ATOM     17  C   UNL     1     -18.147  21.976 -28.418  1.00  0.00     0.016 C 
ATOM     18  C   UNL     1     -18.131  22.207 -25.947  1.00  0.00     0.016 C 
ATOM     19  C   UNL     1     -16.378  20.835 -27.064  1.00  0.00     0.016 C 
ENDBRANCH  15  16
ENDBRANCH   2  10
ENDBRANCH   1   2
BRANCH   1  20
ATOM     20  C   UNL     1     -21.454  14.325 -28.264  1.00  0.00     0.003 A 
ATOM     21  C   UNL     1     -22.070  13.242 -27.699  1.00  0.00     0.117 A 
ATOM     22  C   UNL     1     -21.646  14.631 -29.565  1.00  0.00     0.009 A 
ATOM     23  N   UNL     1     -22.865  12.443 -28.446  1.00  0.00    -0.264 NA
ATOM     24  C   UNL     1     -22.467  13.832 -30.320  1.00  0.00     0.020 A 
ATOM     25  C   UNL     1     -23.075  12.736 -29.740  1.00  0.00     0.111 A 
ENDBRANCH   1  20
BRANCH   1  26
ATOM     26  C   UNL     1     -20.035  14.196 -26.364  1.00  0.00     0.248 C 
ATOM     27  O   UNL     1     -19.382  13.220 -26.634  1.00  0.00    -0.272 OA
ATOM     28  N   UNL     1     -20.371  14.536 -24.970  1.00  0.00    -0.351 N 
ATOM     29  H   UNL     1     -20.823  15.252 -24.823  1.00  0.00     0.163 HD
BRANCH  28  30
ATOM     30  C   UNL     1     -19.979  13.728 -23.842  1.00  0.00     0.082 C 
ATOM     31  C   UNL     1     -21.118  13.776 -22.808  1.00  0.00     0.025 C 
ATOM     32  C   UNL     1     -18.716  14.365 -23.268  1.00  0.00     0.025 C 
ATOM     33  C   UNL     1     -20.679  13.243 -21.435  1.00  0.00     0.002 C 
ATOM     34  C   UNL     1     -18.255  13.666 -21.990  1.00  0.00     0.002 C 
ATOM     35  C   UNL     1     -19.336  13.749 -20.952  1.00  0.00     0.000 C 
ENDBRANCH  28  30
ENDBRANCH   1  26
TORSDOF 8

ENDMDL
MODEL 2
REMARK VINA RESULT:    -9.285      2.527      4.634
REMARK INTER + INTRA:         -14.324
REMARK INTER:                 -11.671
REMARK INTRA:                  -2.652
REMARK CONF_INDEPENDENT:        2.386
REMARK UNBOUND:                 2.652
REMARK SMILES CC(C)(C)c1ccc(N(C(=O)c2c[nH]cn2)C(C(=O)NC2CCCCC2)c2cccnc2)cc1
REMARK SMILES IDX 17 1 9 2 10 3 11 4 12 5 16 6 13 7 15 8 14 9 8 10 33 11 7 12
REMARK SMILES IDX 34 13 6 14 5 15 2 16 4 17 3 18 1 19 27 20 32 21 28 22 31 23
REMARK SMILES IDX 29 24 30 25 18 26 19 27 20 28 21 30 26 31 22 32 25 33 23 34
REMARK SMILES IDX 24 35
REMARK H PARENT 20 29
REMARK Flexibility Score: inf
ROOT
ATOM      1  C   UNL     1     -20.173  15.259 -27.709  1.00  0.00     0.212 C 
ENDROOT
BRANCH   1   2
ATOM      2  N   UNL     1     -20.311  16.552 -28.311  1.00  0.00    -0.290 N 
BRANCH   2   3
ATOM      3  C   UNL     1     -19.511  17.675 -27.807  1.00  0.00     0.279 C 
ATOM      4  O   UNL     1     -18.598  18.028 -28.469  1.00  0.00    -0.267 OA
BRANCH   3   5
ATOM      5  C   UNL     1     -19.835  18.372 -26.466  1.00  0.00     0.146 A 
ATOM      6  N   UNL     1     -19.002  18.441 -25.450  1.00  0.00    -0.232 NA
ATOM      7  C   UNL     1     -21.008  18.993 -26.077  1.00  0.00     0.118 A 
ATOM      8  C   UNL     1     -19.620  19.095 -24.446  1.00  0.00     0.197 A 
ATOM      9  N   UNL     1     -20.850  19.428 -24.832  1.00  0.00    -0.350 N 
ENDBRANCH   3   5
ENDBRANCH   2   3
BRANCH   2  10
ATOM     10  C   UNL     1     -21.389  16.705 -29.316  1.00  0.00     0.045 A 
ATOM     11  C   UNL     1     -21.300  16.105 -30.557  1.00  0.00     0.027 A 
ATOM     12  C   UNL     1     -22.492  17.495 -28.978  1.00  0.00     0.027 A 
ATOM     13  C   UNL     1     -22.341  16.273 -31.488  1.00  0.00     0.006 A 
ATOM     14  C   UNL     1     -23.529  17.663 -29.905  1.00  0.00     0.006 A 
ATOM     15  C   UNL     1     -23.450  17.054 -31.163  1.00  0.00    -0.042 A 
BRANCH  15  16
ATOM     16  C   UNL     1     -24.620  17.241 -32.198  1.00  0.00    -0.013 C 
ATOM     17  C   UNL     1     -25.741  16.251 -31.896  1.00  0.00     0.016 C 
ATOM     18  C   UNL     1     -25.227  18.660 -32.193  1.00  0.00     0.016 C 
ATOM     19  C   UNL     1     -24.050  16.973 -33.595  1.00  0.00     0.016 C 
ENDBRANCH  15  16
ENDBRANCH   2  10
ENDBRANCH   1   2
BRANCH   1  20
ATOM     20  C   UNL     1     -21.113  14.172 -28.137  1.00  0.00     0.003 A 
ATOM     21  C   UNL     1     -22.276  13.938 -27.454  1.00  0.00     0.117 A 
ATOM     22  C   UNL     1     -20.764  13.408 -29.193  1.00  0.00     0.009 A 
ATOM     23  N   UNL     1     -23.084  12.916 -27.815  1.00  0.00    -0.264 NA
ATOM     24  C   UNL     1     -21.592  12.382 -29.572  1.00  0.00     0.020 A 
ATOM     25  C   UNL     1     -22.759  12.149 -28.869  1.00  0.00     0.111 A 
ENDBRANCH   1  20
BRANCH   1  26
ATOM     26  C   UNL     1     -20.503  15.393 -26.193  1.00  0.00     0.248 C 
ATOM     27  O   UNL     1     -21.505  15.944 -25.815  1.00  0.00    -0.272 OA
ATOM     28  N   UNL     1     -19.560  14.772 -25.247  1.00  0.00    -0.351 N 
ATOM     29  H   UNL     1     -18.868  14.374 -25.564  1.00  0.00     0.163 HD
BRANCH  28  30
ATOM     30  C   UNL     1     -19.742  14.799 -23.816  1.00  0.00     0.082 C 
ATOM     31  C   UNL     1     -18.360  14.626 -23.161  1.00  0.00     0.025 C 
ATOM     32  C   UNL     1     -20.643  13.618 -23.469  1.00  0.00     0.025 C 
ATOM     33  C   UNL     1     -18.464  14.297 -21.664  1.00  0.00     0.002 C 
ATOM     34  C   UNL     1     -20.826  13.464 -21.960  1.00  0.00     0.002 C 
ATOM     35  C   UNL     1     -19.492  13.242 -21.311  1.00  0.00     0.000 C 
ENDBRANCH  28  30
ENDBRANCH   1  26
TORSDOF 8

ENDMDL
MODEL 3
REMARK VINA RESULT:    -9.137      1.908      3.241
REMARK INTER + INTRA:         -14.271
REMARK INTER:                 -11.523
REMARK INTRA:                  -2.747
REMARK CONF_INDEPENDENT:        2.386
REMARK UNBOUND:                 2.747
REMARK SMILES CC(C)(C)c1ccc(N(C(=O)c2c[nH]cn2)C(C(=O)NC2CCCCC2)c2cccnc2)cc1
REMARK SMILES IDX 17 1 9 2 10 3 11 4 12 5 16 6 13 7 15 8 14 9 8 10 33 11 7 12
REMARK SMILES IDX 34 13 6 14 5 15 2 16 4 17 3 18 1 19 27 20 32 21 28 22 31 23
REMARK SMILES IDX 29 24 30 25 18 26 19 27 20 28 21 30 26 31 22 32 25 33 23 34
REMARK SMILES IDX 24 35
REMARK H PARENT 20 29
REMARK Flexibility Score: inf
ROOT
ATOM      1  C   UNL     1     -20.335  15.684 -27.575  1.00  0.00     0.212 C 
ENDROOT
BRANCH   1   2
ATOM      2  N   UNL     1     -20.900  16.984 -27.790  1.00  0.00    -0.290 N 
BRANCH   2   3
ATOM      3  C   UNL     1     -22.225  17.103 -28.414  1.00  0.00     0.279 C 
ATOM      4  O   UNL     1     -23.124  17.420 -27.716  1.00  0.00    -0.267 OA
BRANCH   3   5
ATOM      5  C   UNL     1     -22.447  16.825 -29.918  1.00  0.00     0.146 A 
ATOM      6  N   UNL     1     -23.161  15.823 -30.384  1.00  0.00    -0.232 NA
ATOM      7  C   UNL     1     -21.942  17.509 -31.007  1.00  0.00     0.118 A 
ATOM      8  C   UNL     1     -23.121  15.873 -31.731  1.00  0.00     0.197 A 
ATOM      9  N   UNL     1     -22.370  16.904 -32.108  1.00  0.00    -0.350 N 
ENDBRANCH   3   5
ENDBRANCH   2   3
BRANCH   2  10
ATOM     10  C   UNL     1     -20.024  18.145 -27.508  1.00  0.00     0.045 A 
ATOM     11  C   UNL     1     -20.364  19.080 -26.549  1.00  0.00     0.027 A 
ATOM     12  C   UNL     1     -18.852  18.278 -28.258  1.00  0.00     0.027 A 
ATOM     13  C   UNL     1     -19.510  20.171 -26.309  1.00  0.00     0.006 A 
ATOM     14  C   UNL     1     -18.001  19.365 -28.019  1.00  0.00     0.006 A 
ATOM     15  C   UNL     1     -18.334  20.315 -27.045  1.00  0.00    -0.042 A 
BRANCH  15  16
ATOM     16  C   UNL     1     -17.373  21.531 -26.777  1.00  0.00    -0.013 C 
ATOM     17  C   UNL     1     -18.024  22.498 -25.793  1.00  0.00     0.016 C 
ATOM     18  C   UNL     1     -16.003  21.118 -26.198  1.00  0.00     0.016 C 
ATOM     19  C   UNL     1     -17.131  22.235 -28.116  1.00  0.00     0.016 C 
ENDBRANCH  15  16
ENDBRANCH   2  10
ENDBRANCH   1   2
BRANCH   1  20
ATOM     20  C   UNL     1     -21.070  14.493 -28.112  1.00  0.00     0.003 A 
ATOM     21  C   UNL     1     -22.158  13.983 -27.457  1.00  0.00     0.117 A 
ATOM     22  C   UNL     1     -20.608  13.915 -29.241  1.00  0.00     0.009 A 
ATOM     23  N   UNL     1     -22.774  12.872 -27.920  1.00  0.00    -0.264 NA
ATOM     24  C   UNL     1     -21.243  12.799 -29.723  1.00  0.00     0.020 A 
ATOM     25  C   UNL     1     -22.334  12.288 -29.047  1.00  0.00     0.111 A 
ENDBRANCH   1  20
BRANCH   1  26
ATOM     26  C   UNL     1     -20.337  15.402 -26.044  1.00  0.00     0.248 C 
ATOM     27  O   UNL     1     -20.839  16.171 -25.264  1.00  0.00    -0.272 OA
ATOM     28  N   UNL     1     -19.745  14.130 -25.598  1.00  0.00    -0.351 N 
ATOM     29  H   UNL     1     -19.414  13.604 -26.192  1.00  0.00     0.163 HD
BRANCH  28  30
ATOM     30  C   UNL     1     -19.690  13.724 -24.215  1.00  0.00     0.082 C 
ATOM     31  C   UNL     1     -21.070  13.993 -23.590  1.00  0.00     0.025 C 
ATOM     32  C   UNL     1     -18.629  14.594 -23.547  1.00  0.00     0.025 C 
ATOM     33  C   UNL     1     -21.036  13.925 -22.055  1.00  0.00     0.002 C 
ATOM     34  C   UNL     1     -18.548  14.342 -22.043  1.00  0.00     0.002 C 
ATOM     35  C   UNL     1     -19.874  14.649 -21.409  1.00  0.00     0.000 C 
ENDBRANCH  28  30
ENDBRANCH   1  26
TORSDOF 8

ENDMDL
MODEL 4
REMARK VINA RESULT:    -9.050      1.142      1.673
REMARK INTER + INTRA:         -14.716
REMARK INTER:                 -11.436
REMARK INTRA:                  -3.280
REMARK CONF_INDEPENDENT:        2.386
REMARK UNBOUND:                 3.280
REMARK SMILES CC(C)(C)c1ccc(N(C(=O)c2c[nH]cn2)C(C(=O)NC2CCCCC2)c2cccnc2)cc1
REMARK SMILES IDX 17 1 9 2 10 3 11 4 12 5 16 6 13 7 15 8 14 9 8 10 33 11 7 12
REMARK SMILES IDX 34 13 6 14 5 15 2 16 4 17 3 18 1 19 27 20 32 21 28 22 31 23
REMARK SMILES IDX 29 24 30 25 18 26 19 27 20 28 21 30 26 31 22 32 25 33 23 34
REMARK SMILES IDX 24 35
REMARK H PARENT 20 29
REMARK Flexibility Score: inf
ROOT
ATOM      1  C   UNL     1     -20.492  15.165 -27.488  1.00  0.00     0.212 C 
ENDROOT
BRANCH   1   2
ATOM      2  N   UNL     1     -21.022  16.329 -26.842  1.00  0.00    -0.290 N 
BRANCH   2   3
ATOM      3  C   UNL     1     -22.399  16.310 -26.331  1.00  0.00     0.279 C 
ATOM      4  O   UNL     1     -22.735  15.357 -25.719  1.00  0.00    -0.267 OA
BRANCH   3   5
ATOM      5  C   UNL     1     -23.379  17.480 -26.580  1.00  0.00     0.146 A 
ATOM      6  N   UNL     1     -23.506  18.101 -27.733  1.00  0.00    -0.232 NA
ATOM      7  C   UNL     1     -24.237  18.093 -25.687  1.00  0.00     0.118 A 
ATOM      8  C   UNL     1     -24.427  19.075 -27.583  1.00  0.00     0.197 A 
ATOM      9  N   UNL     1     -24.868  19.070 -26.328  1.00  0.00    -0.350 N 
ENDBRANCH   3   5
ENDBRANCH   2   3
BRANCH   2  10
ATOM     10  C   UNL     1     -20.181  17.549 -26.875  1.00  0.00     0.045 A 
ATOM     11  C   UNL     1     -19.463  17.890 -28.005  1.00  0.00     0.027 A 
ATOM     12  C   UNL     1     -20.120  18.334 -25.720  1.00  0.00     0.027 A 
ATOM     13  C   UNL     1     -18.673  19.053 -28.001  1.00  0.00     0.006 A 
ATOM     14  C   UNL     1     -19.333  19.493 -25.717  1.00  0.00     0.006 A 
ATOM     15  C   UNL     1     -18.606  19.850 -26.859  1.00  0.00    -0.042 A 
BRANCH  15  16
ATOM     16  C   UNL     1     -17.728  21.156 -26.851  1.00  0.00    -0.013 C 
ATOM     17  C   UNL     1     -16.271  20.798 -26.572  1.00  0.00     0.016 C 
ATOM     18  C   UNL     1     -17.777  21.940 -28.180  1.00  0.00     0.016 C 
ATOM     19  C   UNL     1     -18.263  22.067 -25.742  1.00  0.00     0.016 C 
ENDBRANCH  15  16
ENDBRANCH   2  10
ENDBRANCH   1   2
BRANCH   1  20
ATOM     20  C   UNL     1     -21.429  14.308 -28.287  1.00  0.00     0.003 A 
ATOM     21  C   UNL     1     -22.073  13.245 -27.715  1.00  0.00     0.117 A 
ATOM     22  C   UNL     1     -21.593  14.595 -29.596  1.00  0.00     0.009 A 
ATOM     23  N   UNL     1     -22.867  12.446 -28.462  1.00  0.00    -0.264 NA
ATOM     24  C   UNL     1     -22.413  13.796 -30.352  1.00  0.00     0.020 A 
ATOM     25  C   UNL     1     -23.049  12.719 -29.764  1.00  0.00     0.111 A 
ENDBRANCH   1  20
BRANCH   1  26
ATOM     26  C   UNL     1     -20.011  14.176 -26.387  1.00  0.00     0.248 C 
ATOM     27  O   UNL     1     -19.383  13.185 -26.662  1.00  0.00    -0.272 OA
ATOM     28  N   UNL     1     -20.312  14.533 -24.990  1.00  0.00    -0.351 N 
ATOM     29  H   UNL     1     -20.747  15.259 -24.840  1.00  0.00     0.163 HD
BRANCH  28  30
ATOM     30  C   UNL     1     -19.916  13.725 -23.863  1.00  0.00     0.082 C 
ATOM     31  C   UNL     1     -21.049  13.777 -22.823  1.00  0.00     0.025 C 
ATOM     32  C   UNL     1     -18.649  14.359 -23.296  1.00  0.00     0.025 C 
ATOM     33  C   UNL     1     -20.604  13.244 -21.452  1.00  0.00     0.002 C 
ATOM     34  C   UNL     1     -18.182  13.660 -22.021  1.00  0.00     0.002 C 
ATOM     35  C   UNL     1     -19.257  13.747 -20.977  1.00  0.00     0.000 C 
ENDBRANCH  28  30
ENDBRANCH   1  26
TORSDOF 8

ENDMDL
MODEL 5
REMARK VINA RESULT:    -8.925      3.229      7.205
REMARK INTER + INTRA:         -14.606
REMARK INTER:                 -11.311
REMARK INTRA:                  -3.295
REMARK CONF_INDEPENDENT:        2.386
REMARK UNBOUND:                 3.295
REMARK SMILES CC(C)(C)c1ccc(N(C(=O)c2c[nH]cn2)C(C(=O)NC2CCCCC2)c2cccnc2)cc1
REMARK SMILES IDX 17 1 9 2 10 3 11 4 12 5 16 6 13 7 15 8 14 9 8 10 33 11 7 12
REMARK SMILES IDX 34 13 6 14 5 15 2 16 4 17 3 18 1 19 27 20 32 21 28 22 31 23
REMARK SMILES IDX 29 24 30 25 18 26 19 27 20 28 21 30 26 31 22 32 25 33 23 34
REMARK SMILES IDX 24 35
REMARK H PARENT 20 29
REMARK Flexibility Score: inf
ROOT
ATOM      1  C   UNL     1     -19.782  20.407 -27.254  1.00  0.00     0.212 C 
ENDROOT
BRANCH   1   2
ATOM      2  N   UNL     1     -19.907  19.836 -28.562  1.00  0.00    -0.290 N 
BRANCH   2   3
ATOM      3  C   UNL     1     -20.009  20.718 -29.731  1.00  0.00     0.279 C 
ATOM      4  O   UNL     1     -19.798  21.868 -29.560  1.00  0.00    -0.267 OA
BRANCH   3   5
ATOM      5  C   UNL     1     -20.380  20.179 -31.132  1.00  0.00     0.146 A 
ATOM      6  N   UNL     1     -21.173  19.150 -31.339  1.00  0.00    -0.232 NA
ATOM      7  C   UNL     1     -19.950  20.621 -32.369  1.00  0.00     0.118 A 
ATOM      8  C   UNL     1     -21.256  18.947 -32.669  1.00  0.00     0.197 A 
ATOM      9  N   UNL     1     -20.502  19.847 -33.296  1.00  0.00    -0.350 N 
ENDBRANCH   3   5
ENDBRANCH   2   3
BRANCH   2  10
ATOM     10  C   UNL     1     -20.088  18.367 -28.631  1.00  0.00     0.045 A 
ATOM     11  C   UNL     1     -19.005  17.518 -28.759  1.00  0.00     0.027 A 
ATOM     12  C   UNL     1     -21.392  17.865 -28.585  1.00  0.00     0.027 A 
ATOM     13  C   UNL     1     -19.214  16.129 -28.824  1.00  0.00     0.006 A 
ATOM     14  C   UNL     1     -21.600  16.481 -28.649  1.00  0.00     0.006 A 
ATOM     15  C   UNL     1     -20.508  15.613 -28.774  1.00  0.00    -0.042 A 
BRANCH  15  16
ATOM     16  C   UNL     1     -20.747  14.059 -28.840  1.00  0.00    -0.013 C 
ATOM     17  C   UNL     1     -21.300  13.563 -27.508  1.00  0.00     0.016 C 
ATOM     18  C   UNL     1     -21.732  13.633 -29.950  1.00  0.00     0.016 C 
ATOM     19  C   UNL     1     -19.396  13.395 -29.122  1.00  0.00     0.016 C 
ENDBRANCH  15  16
ENDBRANCH   2  10
ENDBRANCH   1   2
BRANCH   1  20
ATOM     20  C   UNL     1     -18.585  21.264 -26.964  1.00  0.00     0.003 A 
ATOM     21  C   UNL     1     -18.635  22.246 -26.013  1.00  0.00     0.117 A 
ATOM     22  C   UNL     1     -17.467  21.062 -27.693  1.00  0.00     0.009 A 
ATOM     23  N   UNL     1     -17.568  23.050 -25.805  1.00  0.00    -0.264 NA
ATOM     24  C   UNL     1     -16.377  21.864 -27.471  1.00  0.00     0.020 A 
ATOM     25  C   UNL     1     -16.444  22.859 -26.514  1.00  0.00     0.111 A 
ENDBRANCH   1  20
BRANCH   1  26
ATOM     26  C   UNL     1     -19.602  19.245 -26.233  1.00  0.00     0.248 C 
ATOM     27  O   UNL     1     -18.514  18.933 -25.821  1.00  0.00    -0.272 OA
ATOM     28  N   UNL     1     -20.826  18.580 -25.755  1.00  0.00    -0.351 N 
ATOM     29  H   UNL     1     -21.582  18.849 -26.063  1.00  0.00     0.163 HD
BRANCH  28  30
ATOM     30  C   UNL     1     -20.818  17.501 -24.798  1.00  0.00     0.082 C 
ATOM     31  C   UNL     1     -19.746  16.488 -25.238  1.00  0.00     0.025 C 
ATOM     32  C   UNL     1     -22.203  16.862 -24.851  1.00  0.00     0.025 C 
ATOM     33  C   UNL     1     -19.879  15.146 -24.501  1.00  0.00     0.002 C 
ATOM     34  C   UNL     1     -22.295  15.626 -23.959  1.00  0.00     0.002 C 
ATOM     35  C   UNL     1     -21.290  14.605 -24.407  1.00  0.00     0.000 C 
ENDBRANCH  28  30
ENDBRANCH   1  26
TORSDOF 8

ENDMDL
MODEL 6
REMARK VINA RESULT:    -8.336      2.266      5.557
REMARK INTER + INTRA:         -14.044
REMARK INTER:                 -10.722
REMARK INTRA:                  -3.321
REMARK CONF_INDEPENDENT:        2.386
REMARK UNBOUND:                 3.321
REMARK SMILES CC(C)(C)c1ccc(N(C(=O)c2c[nH]cn2)C(C(=O)NC2CCCCC2)c2cccnc2)cc1
REMARK SMILES IDX 17 1 9 2 10 3 11 4 12 5 16 6 13 7 15 8 14 9 8 10 33 11 7 12
REMARK SMILES IDX 34 13 6 14 5 15 2 16 4 17 3 18 1 19 27 20 32 21 28 22 31 23
REMARK SMILES IDX 29 24 30 25 18 26 19 27 20 28 21 30 26 31 22 32 25 33 23 34
REMARK SMILES IDX 24 35
REMARK H PARENT 20 29
REMARK Flexibility Score: inf
ROOT
ATOM      1  C   UNL     1     -21.469  14.785 -24.002  1.00  0.00     0.212 C 
ENDROOT
BRANCH   1   2
ATOM      2  N   UNL     1     -21.627  16.196 -24.198  1.00  0.00    -0.290 N 
BRANCH   2   3
ATOM      3  C   UNL     1     -22.006  17.047 -23.062  1.00  0.00     0.279 C 
ATOM      4  O   UNL     1     -23.128  16.990 -22.695  1.00  0.00    -0.267 OA
BRANCH   3   5
ATOM      5  C   UNL     1     -20.991  17.986 -22.371  1.00  0.00     0.146 A 
ATOM      6  N   UNL     1     -20.628  17.879 -21.111  1.00  0.00    -0.232 NA
ATOM      7  C   UNL     1     -20.330  19.080 -22.896  1.00  0.00     0.118 A 
ATOM      8  C   UNL     1     -19.753  18.869 -20.842  1.00  0.00     0.197 A 
ATOM      9  N   UNL     1     -19.577  19.606 -21.937  1.00  0.00    -0.350 N 
ENDBRANCH   3   5
ENDBRANCH   2   3
BRANCH   2  10
ATOM     10  C   UNL     1     -21.552  16.685 -25.594  1.00  0.00     0.045 A 
ATOM     11  C   UNL     1     -20.351  17.083 -26.148  1.00  0.00     0.027 A 
ATOM     12  C   UNL     1     -22.740  16.754 -26.329  1.00  0.00     0.027 A 
ATOM     13  C   UNL     1     -20.316  17.545 -27.476  1.00  0.00     0.006 A 
ATOM     14  C   UNL     1     -22.705  17.213 -27.652  1.00  0.00     0.006 A 
ATOM     15  C   UNL     1     -21.491  17.614 -28.224  1.00  0.00    -0.042 A 
BRANCH  15  16
ATOM     16  C   UNL     1     -21.458  18.124 -29.712  1.00  0.00    -0.013 C 
ATOM     17  C   UNL     1     -20.129  18.821 -29.989  1.00  0.00     0.016 C 
ATOM     18  C   UNL     1     -21.629  16.999 -30.754  1.00  0.00     0.016 C 
ATOM     19  C   UNL     1     -22.612  19.116 -29.888  1.00  0.00     0.016 C 
ENDBRANCH  15  16
ENDBRANCH   2  10
ENDBRANCH   1   2
BRANCH   1  20
ATOM     20  C   UNL     1     -20.420  14.315 -23.039  1.00  0.00     0.003 A 
ATOM     21  C   UNL     1     -20.642  13.237 -22.226  1.00  0.00     0.117 A 
ATOM     22  C   UNL     1     -19.263  15.008 -22.971  1.00  0.00     0.009 A 
ATOM     23  N   UNL     1     -19.711  12.862 -21.320  1.00  0.00    -0.264 NA
ATOM     24  C   UNL     1     -18.309  14.618 -22.065  1.00  0.00     0.020 A 
ATOM     25  C   UNL     1     -18.549  13.533 -21.244  1.00  0.00     0.111 A 
ENDBRANCH   1  20
BRANCH   1  26
ATOM     26  C   UNL     1     -20.980  14.162 -25.342  1.00  0.00     0.248 C 
ATOM     27  O   UNL     1     -19.816  13.918 -25.533  1.00  0.00    -0.272 OA
ATOM     28  N   UNL     1     -22.010  13.838 -26.343  1.00  0.00    -0.351 N 
ATOM     29  H   UNL     1     -22.830  14.013 -26.156  1.00  0.00     0.163 HD
BRANCH  28  30
ATOM     30  C   UNL     1     -21.710  13.242 -27.622  1.00  0.00     0.082 C 
ATOM     31  C   UNL     1     -20.949  14.284 -28.461  1.00  0.00     0.025 C 
ATOM     32  C   UNL     1     -23.050  12.914 -28.275  1.00  0.00     0.025 C 
ATOM     33  C   UNL     1     -20.879  13.894 -29.947  1.00  0.00     0.002 C 
ATOM     34  C   UNL     1     -22.877  12.376 -29.694  1.00  0.00     0.002 C 
ATOM     35  C   UNL     1     -22.182  13.402 -30.541  1.00  0.00     0.000 C 
ENDBRANCH  28  30
ENDBRANCH   1  26
TORSDOF 8

ENDMDL
MODEL 7
REMARK VINA RESULT:    -8.233      1.288      4.216
REMARK INTER + INTRA:         -13.857
REMARK INTER:                 -10.620
REMARK INTRA:                  -3.237
REMARK CONF_INDEPENDENT:        2.386
REMARK UNBOUND:                 3.237
REMARK SMILES CC(C)(C)c1ccc(N(C(=O)c2c[nH]cn2)C(C(=O)NC2CCCCC2)c2cccnc2)cc1
REMARK SMILES IDX 17 1 9 2 10 3 11 4 12 5 16 6 13 7 15 8 14 9 8 10 33 11 7 12
REMARK SMILES IDX 34 13 6 14 5 15 2 16 4 17 3 18 1 19 27 20 32 21 28 22 31 23
REMARK SMILES IDX 29 24 30 25 18 26 19 27 20 28 21 30 26 31 22 32 25 33 23 34
REMARK SMILES IDX 24 35
REMARK H PARENT 20 29
REMARK Flexibility Score: inf
ROOT
ATOM      1  C   UNL     1     -22.150  16.275 -26.208  1.00  0.00     0.212 C 
ENDROOT
BRANCH   1   2
ATOM      2  N   UNL     1     -20.901  16.201 -26.906  1.00  0.00    -0.290 N 
BRANCH   2   3
ATOM      3  C   UNL     1     -20.395  14.894 -27.348  1.00  0.00     0.279 C 
ATOM      4  O   UNL     1     -19.361  14.537 -26.901  1.00  0.00    -0.267 OA
BRANCH   3   5
ATOM      5  C   UNL     1     -21.170  14.016 -28.356  1.00  0.00     0.146 A 
ATOM      6  N   UNL     1     -21.997  13.053 -28.012  1.00  0.00    -0.232 NA
ATOM      7  C   UNL     1     -21.122  14.040 -29.737  1.00  0.00     0.118 A 
ATOM      8  C   UNL     1     -22.473  12.487 -29.139  1.00  0.00     0.197 A 
ATOM      9  N   UNL     1     -21.931  13.091 -30.194  1.00  0.00    -0.350 N 
ENDBRANCH   3   5
ENDBRANCH   2   3
BRANCH   2  10
ATOM     10  C   UNL     1     -20.114  17.453 -26.997  1.00  0.00     0.045 A 
ATOM     11  C   UNL     1     -19.583  18.045 -25.867  1.00  0.00     0.027 A 
ATOM     12  C   UNL     1     -19.944  18.030 -28.259  1.00  0.00     0.027 A 
ATOM     13  C   UNL     1     -18.843  19.235 -25.990  1.00  0.00     0.006 A 
ATOM     14  C   UNL     1     -19.207  19.215 -28.380  1.00  0.00     0.006 A 
ATOM     15  C   UNL     1     -18.660  19.820 -27.242  1.00  0.00    -0.042 A 
BRANCH  15  16
ATOM     16  C   UNL     1     -17.829  21.148 -27.385  1.00  0.00    -0.013 C 
ATOM     17  C   UNL     1     -18.398  21.995 -28.519  1.00  0.00     0.016 C 
ATOM     18  C   UNL     1     -17.822  22.012 -26.106  1.00  0.00     0.016 C 
ATOM     19  C   UNL     1     -16.382  20.757 -27.703  1.00  0.00     0.016 C 
ENDBRANCH  15  16
ENDBRANCH   2  10
ENDBRANCH   1   2
BRANCH   1  20
ATOM     20  C   UNL     1     -22.850  17.600 -26.143  1.00  0.00     0.003 A 
ATOM     21  C   UNL     1     -22.660  18.446 -25.084  1.00  0.00     0.117 A 
ATOM     22  C   UNL     1     -23.698  17.921 -27.142  1.00  0.00     0.009 A 
ATOM     23  N   UNL     1     -23.344  19.609 -25.009  1.00  0.00    -0.264 NA
ATOM     24  C   UNL     1     -24.379  19.110 -27.078  1.00  0.00     0.020 A 
ATOM     25  C   UNL     1     -24.187  19.951 -25.998  1.00  0.00     0.111 A 
ENDBRANCH   1  20
BRANCH   1  26
ATOM     26  C   UNL     1     -21.882  15.978 -24.703  1.00  0.00     0.248 C 
ATOM     27  O   UNL     1     -22.756  16.067 -23.879  1.00  0.00    -0.272 OA
ATOM     28  N   UNL     1     -20.525  15.534 -24.342  1.00  0.00    -0.351 N 
ATOM     29  H   UNL     1     -19.938  15.468 -24.966  1.00  0.00     0.163 HD
BRANCH  28  30
ATOM     30  C   UNL     1     -20.132  15.207 -22.993  1.00  0.00     0.082 C 
ATOM     31  C   UNL     1     -18.703  14.639 -23.042  1.00  0.00     0.025 C 
ATOM     32  C   UNL     1     -21.108  14.140 -22.502  1.00  0.00     0.025 C 
ATOM     33  C   UNL     1     -18.309  13.942 -21.730  1.00  0.00     0.002 C 
ATOM     34  C   UNL     1     -20.734  13.620 -21.115  1.00  0.00     0.002 C 
ATOM     35  C   UNL     1     -19.361  13.015 -21.157  1.00  0.00     0.000 C 
ENDBRANCH  28  30
ENDBRANCH   1  26
TORSDOF 8

ENDMDL
MODEL 8
REMARK VINA RESULT:    -8.076      1.860      4.266
REMARK INTER + INTRA:         -13.752
REMARK INTER:                 -10.463
REMARK INTRA:                  -3.290
REMARK CONF_INDEPENDENT:        2.386
REMARK UNBOUND:                 3.290
REMARK SMILES CC(C)(C)c1ccc(N(C(=O)c2c[nH]cn2)C(C(=O)NC2CCCCC2)c2cccnc2)cc1
REMARK SMILES IDX 17 1 9 2 10 3 11 4 12 5 16 6 13 7 15 8 14 9 8 10 33 11 7 12
REMARK SMILES IDX 34 13 6 14 5 15 2 16 4 17 3 18 1 19 27 20 32 21 28 22 31 23
REMARK SMILES IDX 29 24 30 25 18 26 19 27 20 28 21 30 26 31 22 32 25 33 23 34
REMARK SMILES IDX 24 35
REMARK H PARENT 20 29
REMARK Flexibility Score: inf
ROOT
ATOM      1  C   UNL     1     -19.949  15.014 -27.353  1.00  0.00     0.212 C 
ENDROOT
BRANCH   1   2
ATOM      2  N   UNL     1     -20.003  16.419 -27.076  1.00  0.00    -0.290 N 
BRANCH   2   3
ATOM      3  C   UNL     1     -19.379  17.366 -28.009  1.00  0.00     0.279 C 
ATOM      4  O   UNL     1     -19.150  16.977 -29.101  1.00  0.00    -0.267 OA
BRANCH   3   5
ATOM      5  C   UNL     1     -19.026  18.812 -27.592  1.00  0.00     0.146 A 
ATOM      6  N   UNL     1     -18.253  19.118 -26.572  1.00  0.00    -0.232 NA
ATOM      7  C   UNL     1     -19.457  20.001 -28.150  1.00  0.00     0.118 A 
ATOM      8  C   UNL     1     -18.183  20.461 -26.489  1.00  0.00     0.197 A 
ATOM      9  N   UNL     1     -18.925  20.999 -27.453  1.00  0.00    -0.350 N 
ENDBRANCH   3   5
ENDBRANCH   2   3
BRANCH   2  10
ATOM     10  C   UNL     1     -20.557  16.817 -25.760  1.00  0.00     0.045 A 
ATOM     11  C   UNL     1     -19.729  17.207 -24.725  1.00  0.00     0.027 A 
ATOM     12  C   UNL     1     -21.944  16.764 -25.591  1.00  0.00     0.027 A 
ATOM     13  C   UNL     1     -20.289  17.575 -23.489  1.00  0.00     0.006 A 
ATOM     14  C   UNL     1     -22.501  17.132 -24.359  1.00  0.00     0.006 A 
ATOM     15  C   UNL     1     -21.671  17.533 -23.306  1.00  0.00    -0.042 A 
BRANCH  15  16
ATOM     16  C   UNL     1     -22.302  17.950 -21.926  1.00  0.00    -0.013 C 
ATOM     17  C   UNL     1     -22.673  19.430 -21.953  1.00  0.00     0.016 C 
ATOM     18  C   UNL     1     -23.571  17.150 -21.562  1.00  0.00     0.016 C 
ATOM     19  C   UNL     1     -21.252  17.696 -20.840  1.00  0.00     0.016 C 
ENDBRANCH  15  16
ENDBRANCH   2  10
ENDBRANCH   1   2
BRANCH   1  20
ATOM     20  C   UNL     1     -20.916  14.449 -28.350  1.00  0.00     0.003 A 
ATOM     21  C   UNL     1     -22.063  15.121 -28.678  1.00  0.00     0.117 A 
ATOM     22  C   UNL     1     -20.642  13.243 -28.889  1.00  0.00     0.009 A 
ATOM     23  N   UNL     1     -22.955  14.571 -29.532  1.00  0.00    -0.264 NA
ATOM     24  C   UNL     1     -21.537  12.691 -29.771  1.00  0.00     0.020 A 
ATOM     25  C   UNL     1     -22.696  13.375 -30.086  1.00  0.00     0.111 A 
ENDBRANCH   1  20
BRANCH   1  26
ATOM     26  C   UNL     1     -20.340  14.249 -26.054  1.00  0.00     0.248 C 
ATOM     27  O   UNL     1     -21.363  13.618 -25.981  1.00  0.00    -0.272 OA
ATOM     28  N   UNL     1     -19.378  14.291 -24.939  1.00  0.00    -0.351 N 
ATOM     29  H   UNL     1     -18.652  14.740 -25.044  1.00  0.00     0.163 HD
BRANCH  28  30
ATOM     30  C   UNL     1     -19.595  13.618 -23.682  1.00  0.00     0.082 C 
ATOM     31  C   UNL     1     -21.002  13.992 -23.183  1.00  0.00     0.025 C 
ATOM     32  C   UNL     1     -18.535  14.144 -22.718  1.00  0.00     0.025 C 
ATOM     33  C   UNL     1     -21.213  13.618 -21.707  1.00  0.00     0.002 C 
ATOM     34  C   UNL     1     -18.722  13.590 -21.307  1.00  0.00     0.002 C 
ATOM     35  C   UNL     1     -20.071  13.990 -20.784  1.00  0.00     0.000 C 
ENDBRANCH  28  30
ENDBRANCH   1  26
TORSDOF 8

ENDMDL
MODEL 9
REMARK VINA RESULT:    -7.846      2.411      7.344
REMARK INTER + INTRA:         -14.047
REMARK INTER:                 -10.232
REMARK INTRA:                  -3.815
REMARK CONF_INDEPENDENT:        2.386
REMARK UNBOUND:                 3.815
REMARK SMILES CC(C)(C)c1ccc(N(C(=O)c2c[nH]cn2)C(C(=O)NC2CCCCC2)c2cccnc2)cc1
REMARK SMILES IDX 17 1 9 2 10 3 11 4 12 5 16 6 13 7 15 8 14 9 8 10 33 11 7 12
REMARK SMILES IDX 34 13 6 14 5 15 2 16 4 17 3 18 1 19 27 20 32 21 28 22 31 23
REMARK SMILES IDX 29 24 30 25 18 26 19 27 20 28 21 30 26 31 22 32 25 33 23 34
REMARK SMILES IDX 24 35
REMARK H PARENT 20 29
REMARK Flexibility Score: inf
ROOT
ATOM      1  C   UNL     1     -19.497  16.466 -27.736  1.00  0.00     0.212 C 
ENDROOT
BRANCH   1   2
ATOM      2  N   UNL     1     -19.700  15.115 -27.302  1.00  0.00    -0.290 N 
BRANCH   2   3
ATOM      3  C   UNL     1     -19.723  14.031 -28.293  1.00  0.00     0.279 C 
ATOM      4  O   UNL     1     -18.689  13.704 -28.761  1.00  0.00    -0.267 OA
BRANCH   3   5
ATOM      5  C   UNL     1     -21.040  13.342 -28.719  1.00  0.00     0.146 A 
ATOM      6  N   UNL     1     -22.176  13.454 -28.064  1.00  0.00    -0.232 NA
ATOM      7  C   UNL     1     -21.265  12.493 -29.786  1.00  0.00     0.118 A 
ATOM      8  C   UNL     1     -23.100  12.707 -28.701  1.00  0.00     0.197 A 
ATOM      9  N   UNL     1     -22.537  12.117 -29.752  1.00  0.00    -0.350 N 
ENDBRANCH   3   5
ENDBRANCH   2   3
BRANCH   2  10
ATOM     10  C   UNL     1     -20.037  14.920 -25.872  1.00  0.00     0.045 A 
ATOM     11  C   UNL     1     -21.317  14.574 -25.482  1.00  0.00     0.027 A 
ATOM     12  C   UNL     1     -19.026  15.118 -24.928  1.00  0.00     0.027 A 
ATOM     13  C   UNL     1     -21.603  14.400 -24.116  1.00  0.00     0.006 A 
ATOM     14  C   UNL     1     -19.312  14.943 -23.567  1.00  0.00     0.006 A 
ATOM     15  C   UNL     1     -20.604  14.588 -23.162  1.00  0.00    -0.042 A 
BRANCH  15  16
ATOM     16  C   UNL     1     -20.918  14.388 -21.633  1.00  0.00    -0.013 C 
ATOM     17  C   UNL     1     -22.225  13.618 -21.470  1.00  0.00     0.016 C 
ATOM     18  C   UNL     1     -19.816  13.619 -20.873  1.00  0.00     0.016 C 
ATOM     19  C   UNL     1     -21.050  15.778 -21.002  1.00  0.00     0.016 C 
ENDBRANCH  15  16
ENDBRANCH   2  10
ENDBRANCH   1   2
BRANCH   1  20
ATOM     20  C   UNL     1     -19.774  17.573 -26.764  1.00  0.00     0.003 A 
ATOM     21  C   UNL     1     -18.752  18.289 -26.202  1.00  0.00     0.117 A 
ATOM     22  C   UNL     1     -21.058  17.821 -26.431  1.00  0.00     0.009 A 
ATOM     23  N   UNL     1     -19.013  19.243 -25.281  1.00  0.00    -0.264 NA
ATOM     24  C   UNL     1     -21.327  18.803 -25.511  1.00  0.00     0.020 A 
ATOM     25  C   UNL     1     -20.285  19.512 -24.943  1.00  0.00     0.111 A 
ENDBRANCH   1  20
BRANCH   1  26
ATOM     26  C   UNL     1     -20.520  16.768 -28.870  1.00  0.00     0.248 C 
ATOM     27  O   UNL     1     -20.232  17.472 -29.805  1.00  0.00    -0.272 OA
ATOM     28  N   UNL     1     -21.836  16.115 -28.774  1.00  0.00    -0.351 N 
ATOM     29  H   UNL     1     -21.991  15.606 -28.099  1.00  0.00     0.163 HD
BRANCH  28  30
ATOM     30  C   UNL     1     -22.878  16.286 -29.757  1.00  0.00     0.082 C 
ATOM     31  C   UNL     1     -22.376  15.695 -31.086  1.00  0.00     0.025 C 
ATOM     32  C   UNL     1     -23.101  17.790 -29.898  1.00  0.00     0.025 C 
ATOM     33  C   UNL     1     -23.247  16.122 -32.278  1.00  0.00     0.002 C 
ATOM     34  C   UNL     1     -24.109  18.116 -30.997  1.00  0.00     0.002 C 
ATOM     35  C   UNL     1     -23.609  17.592 -32.312  1.00  0.00     0.000 C 
ENDBRANCH  28  30
ENDBRANCH   1  26
TORSDOF 8

ENDMDL
