MODEL 1
REMARK VINA RESULT:    -9.330      0.000      0.000
REMARK INTER + INTRA:         -15.034
REMARK INTER:                 -11.716
REMARK INTRA:                  -3.317
REMARK CONF_INDEPENDENT:        2.386
REMARK UNBOUND:                 3.317
REMARK SMILES CC(C)(C)c1ccc(N(C(=O)c2c[nH]cn2)C(C(=O)NC2CCCCC2)c2cccnc2)cc1
REMARK SMILES IDX 17 1 9 2 10 3 11 4 12 5 16 6 13 7 15 8 14 9 8 10 33 11 7 12
REMARK SMILES IDX 34 13 6 14 5 15 2 16 4 17 3 18 1 19 27 20 32 21 28 22 31 23
REMARK SMILES IDX 29 24 30 25 18 26 19 27 20 28 21 30 26 31 22 32 25 33 23 34
REMARK SMILES IDX 24 35
REMARK H PARENT 20 29
REMARK Flexibility Score: inf
ROOT
ATOM      1  C   UNL     1     -20.519  15.116 -27.477  1.00  0.00     0.212 C 
ENDROOT
BRANCH   1   2
ATOM      2  N   UNL     1     -21.035  16.293 -26.843  1.00  0.00    -0.290 N 
BRANCH   2   3
ATOM      3  C   UNL     1     -22.384  16.271 -26.263  1.00  0.00     0.279 C 
ATOM      4  O   UNL     1     -23.251  15.823 -26.929  1.00  0.00    -0.267 OA
BRANCH   3   5
ATOM      5  C   UNL     1     -22.673  16.812 -24.844  1.00  0.00     0.146 A 
ATOM      6  N   UNL     1     -22.534  16.105 -23.743  1.00  0.00    -0.232 NA
ATOM      7  C   UNL     1     -23.141  18.059 -24.474  1.00  0.00     0.118 A 
ATOM      8  C   UNL     1     -22.892  16.881 -22.700  1.00  0.00     0.197 A 
ATOM      9  N   UNL     1     -23.267  18.075 -23.152  1.00  0.00    -0.350 N 
ENDBRANCH   3   5
ENDBRANCH   2   3
BRANCH   2  10
ATOM     10  C   UNL     1     -20.217  17.523 -26.958  1.00  0.00     0.045 A 
ATOM     11  C   UNL     1     -19.870  18.036 -28.193  1.00  0.00     0.027 A 
ATOM     12  C   UNL     1     -19.788  18.137 -25.778  1.00  0.00     0.027 A 
ATOM     13  C   UNL     1     -19.090  19.204 -28.266  1.00  0.00     0.006 A 
ATOM     14  C   UNL     1     -19.012  19.301 -25.851  1.00  0.00     0.006 A 
ATOM     15  C   UNL     1     -18.659  19.832 -27.098  1.00  0.00    -0.042 A 
BRANCH  15  16
ATOM     16  C   UNL     1     -17.792  21.142 -27.174  1.00  0.00    -0.013 C 
ATOM     17  C   UNL     1     -18.390  22.100 -28.201  1.00  0.00     0.016 C 
ATOM     18  C   UNL     1     -17.690  21.894 -25.830  1.00  0.00     0.016 C 
ATOM     19  C   UNL     1     -16.378  20.738 -27.602  1.00  0.00     0.016 C 
ENDBRANCH  15  16
ENDBRANCH   2  10
ENDBRANCH   1   2
BRANCH   1  20
ATOM     20  C   UNL     1     -21.469  14.257 -28.259  1.00  0.00     0.003 A 
ATOM     21  C   UNL     1     -22.164  13.245 -27.655  1.00  0.00     0.117 A 
ATOM     22  C   UNL     1     -21.591  14.488 -29.583  1.00  0.00     0.009 A 
ATOM     23  N   UNL     1     -22.970  12.441 -28.384  1.00  0.00    -0.264 NA
ATOM     24  C   UNL     1     -22.423  13.684 -30.322  1.00  0.00     0.020 A 
ATOM     25  C   UNL     1     -23.112  12.660 -29.702  1.00  0.00     0.111 A 
ENDBRANCH   1  20
BRANCH   1  26
ATOM     26  C   UNL     1     -20.040  14.137 -26.366  1.00  0.00     0.248 C 
ATOM     27  O   UNL     1     -19.384  13.161 -26.628  1.00  0.00    -0.272 OA
ATOM     28  N   UNL     1     -20.381  14.486 -24.976  1.00  0.00    -0.351 N 
ATOM     29  H   UNL     1     -20.835  15.201 -24.835  1.00  0.00     0.163 HD
BRANCH  28  30
ATOM     30  C   UNL     1     -19.991  13.686 -23.841  1.00  0.00     0.082 C 
ATOM     31  C   UNL     1     -21.119  13.766 -22.797  1.00  0.00     0.025 C 
ATOM     32  C   UNL     1     -18.713  14.309 -23.287  1.00  0.00     0.025 C 
ATOM     33  C   UNL     1     -20.676  13.244 -21.421  1.00  0.00     0.002 C 
ATOM     34  C   UNL     1     -18.251  13.619 -22.005  1.00  0.00     0.002 C 
ATOM     35  C   UNL     1     -19.320  13.733 -20.958  1.00  0.00     0.000 C 
ENDBRANCH  28  30
ENDBRANCH   1  26
TORSDOF 8

ENDMDL
MODEL 2
REMARK VINA RESULT:    -9.280      1.984      3.302
REMARK INTER + INTRA:         -14.236
REMARK INTER:                 -11.667
REMARK INTRA:                  -2.569
REMARK CONF_INDEPENDENT:        2.386
REMARK UNBOUND:                 2.569
REMARK SMILES CC(C)(C)c1ccc(N(C(=O)c2c[nH]cn2)C(C(=O)NC2CCCCC2)c2cccnc2)cc1
REMARK SMILES IDX 17 1 9 2 10 3 11 4 12 5 16 6 13 7 15 8 14 9 8 10 33 11 7 12
REMARK SMILES IDX 34 13 6 14 5 15 2 16 4 17 3 18 1 19 27 20 32 21 28 22 31 23
REMARK SMILES IDX 29 24 30 25 18 26 19 27 20 28 21 30 26 31 22 32 25 33 23 34
REMARK SMILES IDX 24 35
REMARK H PARENT 20 29
REMARK Flexibility Score: inf
ROOT
ATOM      1  C   UNL     1     -20.254  15.608 -27.567  1.00  0.00     0.212 C 
ENDROOT
BRANCH   1   2
ATOM      2  N   UNL     1     -20.852  16.881 -27.842  1.00  0.00    -0.290 N 
BRANCH   2   3
ATOM      3  C   UNL     1     -22.172  16.938 -28.484  1.00  0.00     0.279 C 
ATOM      4  O   UNL     1     -23.098  17.188 -27.795  1.00  0.00    -0.267 OA
BRANCH   3   5
ATOM      5  C   UNL     1     -22.356  16.678 -29.997  1.00  0.00     0.146 A 
ATOM      6  N   UNL     1     -22.744  15.529 -30.506  1.00  0.00    -0.232 NA
ATOM      7  C   UNL     1     -22.127  17.538 -31.055  1.00  0.00     0.118 A 
ATOM      8  C   UNL     1     -22.773  15.654 -31.848  1.00  0.00     0.197 A 
ATOM      9  N   UNL     1     -22.390  16.885 -32.180  1.00  0.00    -0.350 N 
ENDBRANCH   3   5
ENDBRANCH   2   3
BRANCH   2  10
ATOM     10  C   UNL     1     -20.012  18.077 -27.598  1.00  0.00     0.045 A 
ATOM     11  C   UNL     1     -19.415  18.292 -26.371  1.00  0.00     0.027 A 
ATOM     12  C   UNL     1     -19.859  18.993 -28.643  1.00  0.00     0.027 A 
ATOM     13  C   UNL     1     -18.625  19.440 -26.174  1.00  0.00     0.006 A 
ATOM     14  C   UNL     1     -19.072  20.136 -28.447  1.00  0.00     0.006 A 
ATOM     15  C   UNL     1     -18.458  20.360 -27.208  1.00  0.00    -0.042 A 
BRANCH  15  16
ATOM     16  C   UNL     1     -17.572  21.642 -26.995  1.00  0.00    -0.013 C 
ATOM     17  C   UNL     1     -17.148  22.209 -28.347  1.00  0.00     0.016 C 
ATOM     18  C   UNL     1     -18.288  22.765 -26.214  1.00  0.00     0.016 C 
ATOM     19  C   UNL     1     -16.334  21.222 -26.196  1.00  0.00     0.016 C 
ENDBRANCH  15  16
ENDBRANCH   2  10
ENDBRANCH   1   2
BRANCH   1  20
ATOM     20  C   UNL     1     -20.893  14.383 -28.151  1.00  0.00     0.003 A 
ATOM     21  C   UNL     1     -20.319  13.722 -29.203  1.00  0.00     0.117 A 
ATOM     22  C   UNL     1     -22.068  13.970 -27.631  1.00  0.00     0.009 A 
ATOM     23  N   UNL     1     -20.937  12.655 -29.757  1.00  0.00    -0.264 NA
ATOM     24  C   UNL     1     -22.688  12.875 -28.180  1.00  0.00     0.020 A 
ATOM     25  C   UNL     1     -22.103  12.223 -29.249  1.00  0.00     0.111 A 
ENDBRANCH   1  20
BRANCH   1  26
ATOM     26  C   UNL     1     -20.371  15.337 -26.039  1.00  0.00     0.248 C 
ATOM     27  O   UNL     1     -20.979  16.082 -25.313  1.00  0.00    -0.272 OA
ATOM     28  N   UNL     1     -19.751  14.102 -25.530  1.00  0.00    -0.351 N 
ATOM     29  H   UNL     1     -19.343  13.591 -26.087  1.00  0.00     0.163 HD
BRANCH  28  30
ATOM     30  C   UNL     1     -19.792  13.710 -24.142  1.00  0.00     0.082 C 
ATOM     31  C   UNL     1     -21.212  13.987 -23.616  1.00  0.00     0.025 C 
ATOM     32  C   UNL     1     -18.777  14.584 -23.411  1.00  0.00     0.025 C 
ATOM     33  C   UNL     1     -21.283  13.934 -22.081  1.00  0.00     0.002 C 
ATOM     34  C   UNL     1     -18.801  14.346 -21.903  1.00  0.00     0.002 C 
ATOM     35  C   UNL     1     -20.166  14.663 -21.364  1.00  0.00     0.000 C 
ENDBRANCH  28  30
ENDBRANCH   1  26
TORSDOF 8

ENDMDL
MODEL 3
REMARK VINA RESULT:    -9.257      2.063      6.729
REMARK INTER + INTRA:         -14.094
REMARK INTER:                 -11.643
REMARK INTRA:                  -2.451
REMARK CONF_INDEPENDENT:        2.386
REMARK UNBOUND:                 2.451
REMARK SMILES CC(C)(C)c1ccc(N(C(=O)c2c[nH]cn2)C(C(=O)NC2CCCCC2)c2cccnc2)cc1
REMARK SMILES IDX 17 1 9 2 10 3 11 4 12 5 16 6 13 7 15 8 14 9 8 10 33 11 7 12
REMARK SMILES IDX 34 13 6 14 5 15 2 16 4 17 3 18 1 19 27 20 32 21 28 22 31 23
REMARK SMILES IDX 29 24 30 25 18 26 19 27 20 28 21 30 26 31 22 32 25 33 23 34
REMARK SMILES IDX 24 35
REMARK H PARENT 20 29
REMARK Flexibility Score: inf
ROOT
ATOM      1  C   UNL     1     -20.857  16.762 -27.965  1.00  0.00     0.212 C 
ENDROOT
BRANCH   1   2
ATOM      2  N   UNL     1     -20.482  15.469 -27.473  1.00  0.00    -0.290 N 
BRANCH   2   3
ATOM      3  C   UNL     1     -20.210  14.383 -28.424  1.00  0.00     0.279 C 
ATOM      4  O   UNL     1     -19.126  14.334 -28.892  1.00  0.00    -0.267 OA
BRANCH   3   5
ATOM      5  C   UNL     1     -21.288  13.344 -28.808  1.00  0.00     0.146 A 
ATOM      6  N   UNL     1     -21.279  12.651 -29.927  1.00  0.00    -0.232 NA
ATOM      7  C   UNL     1     -22.427  12.985 -28.113  1.00  0.00     0.118 A 
ATOM      8  C   UNL     1     -22.373  11.865 -29.940  1.00  0.00     0.197 A 
ATOM      9  N   UNL     1     -23.077  12.075 -28.830  1.00  0.00    -0.350 N 
ENDBRANCH   3   5
ENDBRANCH   2   3
BRANCH   2  10
ATOM     10  C   UNL     1     -20.551  15.270 -26.006  1.00  0.00     0.045 A 
ATOM     11  C   UNL     1     -21.094  16.234 -25.179  1.00  0.00     0.027 A 
ATOM     12  C   UNL     1     -20.028  14.084 -25.481  1.00  0.00     0.027 A 
ATOM     13  C   UNL     1     -21.141  16.013 -23.791  1.00  0.00     0.006 A 
ATOM     14  C   UNL     1     -20.076  13.864 -24.098  1.00  0.00     0.006 A 
ATOM     15  C   UNL     1     -20.630  14.833 -23.253  1.00  0.00    -0.042 A 
BRANCH  15  16
ATOM     16  C   UNL     1     -20.685  14.578 -21.701  1.00  0.00    -0.013 C 
ATOM     17  C   UNL     1     -20.876  15.902 -20.966  1.00  0.00     0.016 C 
ATOM     18  C   UNL     1     -21.825  13.630 -21.272  1.00  0.00     0.016 C 
ATOM     19  C   UNL     1     -19.355  13.941 -21.288  1.00  0.00     0.016 C 
ENDBRANCH  15  16
ENDBRANCH   2  10
ENDBRANCH   1   2
BRANCH   1  20
ATOM     20  C   UNL     1     -21.506  16.847 -29.314  1.00  0.00     0.003 A 
ATOM     21  C   UNL     1     -20.999  17.663 -30.289  1.00  0.00     0.117 A 
ATOM     22  C   UNL     1     -22.624  16.123 -29.529  1.00  0.00     0.009 A 
ATOM     23  N   UNL     1     -21.630  17.776 -31.479  1.00  0.00    -0.264 NA
ATOM     24  C   UNL     1     -23.255  16.222 -30.743  1.00  0.00     0.020 A 
ATOM     25  C   UNL     1     -22.739  17.057 -31.716  1.00  0.00     0.111 A 
ENDBRANCH   1  20
BRANCH   1  26
ATOM     26  C   UNL     1     -19.559  17.594 -28.177  1.00  0.00     0.248 C 
ATOM     27  O   UNL     1     -18.632  17.162 -28.814  1.00  0.00    -0.272 OA
ATOM     28  N   UNL     1     -19.536  18.953 -27.609  1.00  0.00    -0.351 N 
ATOM     29  H   UNL     1     -20.227  19.226 -27.178  1.00  0.00     0.163 HD
BRANCH  28  30
ATOM     30  C   UNL     1     -18.411  19.846 -27.740  1.00  0.00     0.082 C 
ATOM     31  C   UNL     1     -17.868  20.130 -26.328  1.00  0.00     0.025 C 
ATOM     32  C   UNL     1     -18.945  21.131 -28.368  1.00  0.00     0.025 C 
ATOM     33  C   UNL     1     -16.900  21.324 -26.307  1.00  0.00     0.002 C 
ATOM     34  C   UNL     1     -17.870  22.211 -28.460  1.00  0.00     0.002 C 
ATOM     35  C   UNL     1     -17.365  22.538 -27.085  1.00  0.00     0.000 C 
ENDBRANCH  28  30
ENDBRANCH   1  26
TORSDOF 8

ENDMDL
MODEL 4
REMARK VINA RESULT:    -9.098      2.620      4.694
REMARK INTER + INTRA:         -14.199
REMARK INTER:                 -11.484
REMARK INTRA:                  -2.715
REMARK CONF_INDEPENDENT:        2.386
REMARK UNBOUND:                 2.715
REMARK SMILES CC(C)(C)c1ccc(N(C(=O)c2c[nH]cn2)C(C(=O)NC2CCCCC2)c2cccnc2)cc1
REMARK SMILES IDX 17 1 9 2 10 3 11 4 12 5 16 6 13 7 15 8 14 9 8 10 33 11 7 12
REMARK SMILES IDX 34 13 6 14 5 15 2 16 4 17 3 18 1 19 27 20 32 21 28 22 31 23
REMARK SMILES IDX 29 24 30 25 18 26 19 27 20 28 21 30 26 31 22 32 25 33 23 34
REMARK SMILES IDX 24 35
REMARK H PARENT 20 29
REMARK Flexibility Score: inf
ROOT
ATOM      1  C   UNL     1     -20.170  15.342 -27.775  1.00  0.00     0.212 C 
ENDROOT
BRANCH   1   2
ATOM      2  N   UNL     1     -20.313  16.621 -28.405  1.00  0.00    -0.290 N 
BRANCH   2   3
ATOM      3  C   UNL     1     -19.497  17.752 -27.943  1.00  0.00     0.279 C 
ATOM      4  O   UNL     1     -18.622  18.112 -28.651  1.00  0.00    -0.267 OA
BRANCH   3   5
ATOM      5  C   UNL     1     -19.758  18.447 -26.587  1.00  0.00     0.146 A 
ATOM      6  N   UNL     1     -18.977  18.328 -25.535  1.00  0.00    -0.232 NA
ATOM      7  C   UNL     1     -20.818  19.254 -26.221  1.00  0.00     0.118 A 
ATOM      8  C   UNL     1     -19.516  19.046 -24.530  1.00  0.00     0.197 A 
ATOM      9  N   UNL     1     -20.647  19.608 -24.952  1.00  0.00    -0.350 N 
ENDBRANCH   3   5
ENDBRANCH   2   3
BRANCH   2  10
ATOM     10  C   UNL     1     -21.409  16.757 -29.393  1.00  0.00     0.045 A 
ATOM     11  C   UNL     1     -21.326  16.166 -30.639  1.00  0.00     0.027 A 
ATOM     12  C   UNL     1     -22.523  17.523 -29.034  1.00  0.00     0.027 A 
ATOM     13  C   UNL     1     -22.384  16.317 -31.552  1.00  0.00     0.006 A 
ATOM     14  C   UNL     1     -23.577  17.673 -29.944  1.00  0.00     0.006 A 
ATOM     15  C   UNL     1     -23.505  17.073 -31.207  1.00  0.00    -0.042 A 
BRANCH  15  16
ATOM     16  C   UNL     1     -24.694  17.241 -32.223  1.00  0.00    -0.013 C 
ATOM     17  C   UNL     1     -25.236  18.666 -32.154  1.00  0.00     0.016 C 
ATOM     18  C   UNL     1     -24.299  16.955 -33.688  1.00  0.00     0.016 C 
ATOM     19  C   UNL     1     -25.789  16.247 -31.823  1.00  0.00     0.016 C 
ENDBRANCH  15  16
ENDBRANCH   2  10
ENDBRANCH   1   2
BRANCH   1  20
ATOM     20  C   UNL     1     -21.094  14.237 -28.194  1.00  0.00     0.003 A 
ATOM     21  C   UNL     1     -22.247  13.983 -27.503  1.00  0.00     0.117 A 
ATOM     22  C   UNL     1     -20.738  13.478 -29.252  1.00  0.00     0.009 A 
ATOM     23  N   UNL     1     -23.039  12.945 -27.856  1.00  0.00    -0.264 NA
ATOM     24  C   UNL     1     -21.550  12.436 -29.623  1.00  0.00     0.020 A 
ATOM     25  C   UNL     1     -22.707  12.184 -28.911  1.00  0.00     0.111 A 
ENDBRANCH   1  20
BRANCH   1  26
ATOM     26  C   UNL     1     -20.524  15.504 -26.267  1.00  0.00     0.248 C 
ATOM     27  O   UNL     1     -21.465  16.165 -25.910  1.00  0.00    -0.272 OA
ATOM     28  N   UNL     1     -19.686  14.770 -25.303  1.00  0.00    -0.351 N 
ATOM     29  H   UNL     1     -19.037  14.296 -25.605  1.00  0.00     0.163 HD
BRANCH  28  30
ATOM     30  C   UNL     1     -19.903  14.809 -23.877  1.00  0.00     0.082 C 
ATOM     31  C   UNL     1     -18.535  14.657 -23.188  1.00  0.00     0.025 C 
ATOM     32  C   UNL     1     -20.799  13.620 -23.540  1.00  0.00     0.025 C 
ATOM     33  C   UNL     1     -18.672  14.341 -21.690  1.00  0.00     0.002 C 
ATOM     34  C   UNL     1     -21.017  13.479 -22.035  1.00  0.00     0.002 C 
ATOM     35  C   UNL     1     -19.695  13.278 -21.352  1.00  0.00     0.000 C 
ENDBRANCH  28  30
ENDBRANCH   1  26
TORSDOF 8

ENDMDL
MODEL 5
REMARK VINA RESULT:    -9.057      1.181      1.714
REMARK INTER + INTRA:         -14.716
REMARK INTER:                 -11.443
REMARK INTRA:                  -3.273
REMARK CONF_INDEPENDENT:        2.386
REMARK UNBOUND:                 3.273
REMARK SMILES CC(C)(C)c1ccc(N(C(=O)c2c[nH]cn2)C(C(=O)NC2CCCCC2)c2cccnc2)cc1
REMARK SMILES IDX 17 1 9 2 10 3 11 4 12 5 16 6 13 7 15 8 14 9 8 10 33 11 7 12
REMARK SMILES IDX 34 13 6 14 5 15 2 16 4 17 3 18 1 19 27 20 32 21 28 22 31 23
REMARK SMILES IDX 29 24 30 25 18 26 19 27 20 28 21 30 26 31 22 32 25 33 23 34
REMARK SMILES IDX 24 35
REMARK H PARENT 20 29
REMARK Flexibility Score: inf
ROOT
ATOM      1  C   UNL     1     -20.448  15.146 -27.478  1.00  0.00     0.212 C 
ENDROOT
BRANCH   1   2
ATOM      2  N   UNL     1     -20.980  16.312 -26.839  1.00  0.00    -0.290 N 
BRANCH   2   3
ATOM      3  C   UNL     1     -22.355  16.293 -26.324  1.00  0.00     0.279 C 
ATOM      4  O   UNL     1     -22.675  15.360 -25.674  1.00  0.00    -0.267 OA
BRANCH   3   5
ATOM      5  C   UNL     1     -23.353  17.436 -26.617  1.00  0.00     0.146 A 
ATOM      6  N   UNL     1     -23.334  18.170 -27.709  1.00  0.00    -0.232 NA
ATOM      7  C   UNL     1     -24.379  17.912 -25.822  1.00  0.00     0.118 A 
ATOM      8  C   UNL     1     -24.326  19.079 -27.619  1.00  0.00     0.197 A 
ATOM      9  N   UNL     1     -24.960  18.921 -26.460  1.00  0.00    -0.350 N 
ENDBRANCH   3   5
ENDBRANCH   2   3
BRANCH   2  10
ATOM     10  C   UNL     1     -20.143  17.535 -26.884  1.00  0.00     0.045 A 
ATOM     11  C   UNL     1     -19.571  17.965 -28.065  1.00  0.00     0.027 A 
ATOM     12  C   UNL     1     -19.932  18.228 -25.688  1.00  0.00     0.027 A 
ATOM     13  C   UNL     1     -18.781  19.129 -28.071  1.00  0.00     0.006 A 
ATOM     14  C   UNL     1     -19.145  19.387 -25.695  1.00  0.00     0.006 A 
ATOM     15  C   UNL     1     -18.566  19.835 -26.888  1.00  0.00    -0.042 A 
BRANCH  15  16
ATOM     16  C   UNL     1     -17.687  21.140 -26.890  1.00  0.00    -0.013 C 
ATOM     17  C   UNL     1     -16.243  20.792 -26.543  1.00  0.00     0.016 C 
ATOM     18  C   UNL     1     -17.683  21.879 -28.246  1.00  0.00     0.016 C 
ATOM     19  C   UNL     1     -18.263  22.088 -25.834  1.00  0.00     0.016 C 
ENDBRANCH  15  16
ENDBRANCH   2  10
ENDBRANCH   1   2
BRANCH   1  20
ATOM     20  C   UNL     1     -21.377  14.297 -28.294  1.00  0.00     0.003 A 
ATOM     21  C   UNL     1     -22.048  13.245 -27.731  1.00  0.00     0.117 A 
ATOM     22  C   UNL     1     -21.507  14.578 -29.607  1.00  0.00     0.009 A 
ATOM     23  N   UNL     1     -22.835  12.452 -28.491  1.00  0.00    -0.264 NA
ATOM     24  C   UNL     1     -22.321  13.785 -30.378  1.00  0.00     0.020 A 
ATOM     25  C   UNL     1     -22.984  12.720 -29.799  1.00  0.00     0.111 A 
ENDBRANCH   1  20
BRANCH   1  26
ATOM     26  C   UNL     1     -19.991  14.151 -26.370  1.00  0.00     0.248 C 
ATOM     27  O   UNL     1     -19.398  13.139 -26.640  1.00  0.00    -0.272 OA
ATOM     28  N   UNL     1     -20.273  14.531 -24.975  1.00  0.00    -0.351 N 
ATOM     29  H   UNL     1     -20.683  15.272 -24.829  1.00  0.00     0.163 HD
BRANCH  28  30
ATOM     30  C   UNL     1     -19.896  13.720 -23.843  1.00  0.00     0.082 C 
ATOM     31  C   UNL     1     -21.040  13.783 -22.816  1.00  0.00     0.025 C 
ATOM     32  C   UNL     1     -18.630  14.344 -23.263  1.00  0.00     0.025 C 
ATOM     33  C   UNL     1     -20.614  13.248 -21.439  1.00  0.00     0.002 C 
ATOM     34  C   UNL     1     -18.183  13.642 -21.982  1.00  0.00     0.002 C 
ATOM     35  C   UNL     1     -19.268  13.740 -20.950  1.00  0.00     0.000 C 
ENDBRANCH  28  30
ENDBRANCH   1  26
TORSDOF 8

ENDMDL
MODEL 6
REMARK VINA RESULT:    -8.909      3.208      7.206
REMARK INTER + INTRA:         -14.605
REMARK INTER:                 -11.295
REMARK INTRA:                  -3.309
REMARK CONF_INDEPENDENT:        2.386
REMARK UNBOUND:                 3.309
REMARK SMILES CC(C)(C)c1ccc(N(C(=O)c2c[nH]cn2)C(C(=O)NC2CCCCC2)c2cccnc2)cc1
REMARK SMILES IDX 17 1 9 2 10 3 11 4 12 5 16 6 13 7 15 8 14 9 8 10 33 11 7 12
REMARK SMILES IDX 34 13 6 14 5 15 2 16 4 17 3 18 1 19 27 20 32 21 28 22 31 23
REMARK SMILES IDX 29 24 30 25 18 26 19 27 20 28 21 30 26 31 22 32 25 33 23 34
REMARK SMILES IDX 24 35
REMARK H PARENT 20 29
REMARK Flexibility Score: inf
ROOT
ATOM      1  C   UNL     1     -19.659  20.419 -27.216  1.00  0.00     0.212 C 
ENDROOT
BRANCH   1   2
ATOM      2  N   UNL     1     -19.850  19.844 -28.515  1.00  0.00    -0.290 N 
BRANCH   2   3
ATOM      3  C   UNL     1     -19.987  20.722 -29.684  1.00  0.00     0.279 C 
ATOM      4  O   UNL     1     -19.753  21.870 -29.527  1.00  0.00    -0.267 OA
BRANCH   3   5
ATOM      5  C   UNL     1     -20.422  20.182 -31.065  1.00  0.00     0.146 A 
ATOM      6  N   UNL     1     -21.215  19.146 -31.235  1.00  0.00    -0.232 NA
ATOM      7  C   UNL     1     -20.058  20.630 -32.321  1.00  0.00     0.118 A 
ATOM      8  C   UNL     1     -21.362  18.945 -32.560  1.00  0.00     0.197 A 
ATOM      9  N   UNL     1     -20.648  19.853 -33.222  1.00  0.00    -0.350 N 
ENDBRANCH   3   5
ENDBRANCH   2   3
BRANCH   2  10
ATOM     10  C   UNL     1     -20.060  18.378 -28.568  1.00  0.00     0.045 A 
ATOM     11  C   UNL     1     -19.003  17.512 -28.773  1.00  0.00     0.027 A 
ATOM     12  C   UNL     1     -21.365  17.898 -28.426  1.00  0.00     0.027 A 
ATOM     13  C   UNL     1     -19.239  16.126 -28.820  1.00  0.00     0.006 A 
ATOM     14  C   UNL     1     -21.600  16.517 -28.473  1.00  0.00     0.006 A 
ATOM     15  C   UNL     1     -20.534  15.631 -28.675  1.00  0.00    -0.042 A 
BRANCH  15  16
ATOM     16  C   UNL     1     -20.803  14.082 -28.721  1.00  0.00    -0.013 C 
ATOM     17  C   UNL     1     -21.557  13.650 -27.467  1.00  0.00     0.016 C 
ATOM     18  C   UNL     1     -21.627  13.635 -29.947  1.00  0.00     0.016 C 
ATOM     19  C   UNL     1     -19.443  13.378 -28.779  1.00  0.00     0.016 C 
ENDBRANCH  15  16
ENDBRANCH   2  10
ENDBRANCH   1   2
BRANCH   1  20
ATOM     20  C   UNL     1     -18.443  21.267 -26.987  1.00  0.00     0.003 A 
ATOM     21  C   UNL     1     -17.292  21.055 -27.698  1.00  0.00     0.117 A 
ATOM     22  C   UNL     1     -18.504  22.223 -26.037  1.00  0.00     0.009 A 
ATOM     23  N   UNL     1     -16.186  21.786 -27.438  1.00  0.00    -0.264 NA
ATOM     24  C   UNL     1     -17.387  22.979 -25.784  1.00  0.00     0.020 A 
ATOM     25  C   UNL     1     -16.229  22.748 -26.501  1.00  0.00     0.111 A 
ENDBRANCH   1  20
BRANCH   1  26
ATOM     26  C   UNL     1     -19.440  19.260 -26.200  1.00  0.00     0.248 C 
ATOM     27  O   UNL     1     -18.336  18.934 -25.847  1.00  0.00    -0.272 OA
ATOM     28  N   UNL     1     -20.646  18.616 -25.652  1.00  0.00    -0.351 N 
ATOM     29  H   UNL     1     -21.414  18.894 -25.920  1.00  0.00     0.163 HD
BRANCH  28  30
ATOM     30  C   UNL     1     -20.601  17.542 -24.691  1.00  0.00     0.082 C 
ATOM     31  C   UNL     1     -19.649  16.462 -25.234  1.00  0.00     0.025 C 
ATOM     32  C   UNL     1     -22.021  16.990 -24.587  1.00  0.00     0.025 C 
ATOM     33  C   UNL     1     -19.784  15.133 -24.474  1.00  0.00     0.002 C 
ATOM     34  C   UNL     1     -22.092  15.765 -23.678  1.00  0.00     0.002 C 
ATOM     35  C   UNL     1     -21.207  14.682 -24.222  1.00  0.00     0.000 C 
ENDBRANCH  28  30
ENDBRANCH   1  26
TORSDOF 8

ENDMDL
MODEL 7
REMARK VINA RESULT:    -8.503      2.247      5.818
REMARK INTER + INTRA:         -14.049
REMARK INTER:                 -10.889
REMARK INTRA:                  -3.160
REMARK CONF_INDEPENDENT:        2.386
REMARK UNBOUND:                 3.160
REMARK SMILES CC(C)(C)c1ccc(N(C(=O)c2c[nH]cn2)C(C(=O)NC2CCCCC2)c2cccnc2)cc1
REMARK SMILES IDX 17 1 9 2 10 3 11 4 12 5 16 6 13 7 15 8 14 9 8 10 33 11 7 12
REMARK SMILES IDX 34 13 6 14 5 15 2 16 4 17 3 18 1 19 27 20 32 21 28 22 31 23
REMARK SMILES IDX 29 24 30 25 18 26 19 27 20 28 21 30 26 31 22 32 25 33 23 34
REMARK SMILES IDX 24 35
REMARK H PARENT 20 29
REMARK Flexibility Score: inf
ROOT
ATOM      1  C   UNL     1     -21.000  14.885 -24.376  1.00  0.00     0.212 C 
ENDROOT
BRANCH   1   2
ATOM      2  N   UNL     1     -20.806  16.233 -24.824  1.00  0.00    -0.290 N 
BRANCH   2   3
ATOM      3  C   UNL     1     -20.417  17.268 -23.858  1.00  0.00     0.279 C 
ATOM      4  O   UNL     1     -20.585  17.029 -22.713  1.00  0.00    -0.267 OA
BRANCH   3   5
ATOM      5  C   UNL     1     -19.816  18.620 -24.307  1.00  0.00     0.146 A 
ATOM      6  N   UNL     1     -19.003  18.761 -25.332  1.00  0.00    -0.232 NA
ATOM      7  C   UNL     1     -19.973  19.868 -23.734  1.00  0.00     0.118 A 
ATOM      8  C   UNL     1     -18.661  20.062 -25.418  1.00  0.00     0.197 A 
ATOM      9  N   UNL     1     -19.253  20.736 -24.435  1.00  0.00    -0.350 N 
ENDBRANCH   3   5
ENDBRANCH   2   3
BRANCH   2  10
ATOM     10  C   UNL     1     -21.175  16.526 -26.229  1.00  0.00     0.045 A 
ATOM     11  C   UNL     1     -22.483  16.797 -26.582  1.00  0.00     0.027 A 
ATOM     12  C   UNL     1     -20.162  16.497 -27.192  1.00  0.00     0.027 A 
ATOM     13  C   UNL     1     -22.798  17.069 -27.926  1.00  0.00     0.006 A 
ATOM     14  C   UNL     1     -20.476  16.768 -28.530  1.00  0.00     0.006 A 
ATOM     15  C   UNL     1     -21.798  17.050 -28.897  1.00  0.00    -0.042 A 
BRANCH  15  16
ATOM     16  C   UNL     1     -22.144  17.358 -30.400  1.00  0.00    -0.013 C 
ATOM     17  C   UNL     1     -22.024  16.083 -31.230  1.00  0.00     0.016 C 
ATOM     18  C   UNL     1     -23.566  17.923 -30.602  1.00  0.00     0.016 C 
ATOM     19  C   UNL     1     -21.141  18.402 -30.901  1.00  0.00     0.016 C 
ENDBRANCH  15  16
ENDBRANCH   2  10
ENDBRANCH   1   2
BRANCH   1  20
ATOM     20  C   UNL     1     -20.040  14.327 -23.367  1.00  0.00     0.003 A 
ATOM     21  C   UNL     1     -20.457  13.437 -22.416  1.00  0.00     0.117 A 
ATOM     22  C   UNL     1     -18.760  14.755 -23.403  1.00  0.00     0.009 A 
ATOM     23  N   UNL     1     -19.594  12.990 -21.476  1.00  0.00    -0.264 NA
ATOM     24  C   UNL     1     -17.879  14.288 -22.462  1.00  0.00     0.020 A 
ATOM     25  C   UNL     1     -18.315  13.396 -21.500  1.00  0.00     0.111 A 
ENDBRANCH   1  20
BRANCH   1  26
ATOM     26  C   UNL     1     -20.781  13.935 -25.590  1.00  0.00     0.248 C 
ATOM     27  O   UNL     1     -19.761  13.308 -25.721  1.00  0.00    -0.272 OA
ATOM     28  N   UNL     1     -21.897  13.800 -26.542  1.00  0.00    -0.351 N 
ATOM     29  H   UNL     1     -22.613  14.253 -26.398  1.00  0.00     0.163 HD
BRANCH  28  30
ATOM     30  C   UNL     1     -21.847  12.945 -27.702  1.00  0.00     0.082 C 
ATOM     31  C   UNL     1     -20.614  13.346 -28.531  1.00  0.00     0.025 C 
ATOM     32  C   UNL     1     -23.125  13.211 -28.494  1.00  0.00     0.025 C 
ATOM     33  C   UNL     1     -20.646  12.749 -29.947  1.00  0.00     0.002 C 
ATOM     34  C   UNL     1     -23.146  12.445 -29.816  1.00  0.00     0.002 C 
ATOM     35  C   UNL     1     -21.977  12.863 -30.659  1.00  0.00     0.000 C 
ENDBRANCH  28  30
ENDBRANCH   1  26
TORSDOF 8

ENDMDL
MODEL 8
REMARK VINA RESULT:    -8.413      2.509      5.660
REMARK INTER + INTRA:         -14.065
REMARK INTER:                 -10.800
REMARK INTRA:                  -3.266
REMARK CONF_INDEPENDENT:        2.386
REMARK UNBOUND:                 3.266
REMARK SMILES CC(C)(C)c1ccc(N(C(=O)c2c[nH]cn2)C(C(=O)NC2CCCCC2)c2cccnc2)cc1
REMARK SMILES IDX 17 1 9 2 10 3 11 4 12 5 16 6 13 7 15 8 14 9 8 10 33 11 7 12
REMARK SMILES IDX 34 13 6 14 5 15 2 16 4 17 3 18 1 19 27 20 32 21 28 22 31 23
REMARK SMILES IDX 29 24 30 25 18 26 19 27 20 28 21 30 26 31 22 32 25 33 23 34
REMARK SMILES IDX 24 35
REMARK H PARENT 20 29
REMARK Flexibility Score: inf
ROOT
ATOM      1  C   UNL     1     -20.859  15.321 -24.539  1.00  0.00     0.212 C 
ENDROOT
BRANCH   1   2
ATOM      2  N   UNL     1     -20.499  16.591 -25.098  1.00  0.00    -0.290 N 
BRANCH   2   3
ATOM      3  C   UNL     1     -19.931  17.630 -24.230  1.00  0.00     0.279 C 
ATOM      4  O   UNL     1     -19.007  18.237 -24.648  1.00  0.00    -0.267 OA
BRANCH   3   5
ATOM      5  C   UNL     1     -20.504  17.924 -22.825  1.00  0.00     0.146 A 
ATOM      6  N   UNL     1     -21.543  17.304 -22.308  1.00  0.00    -0.232 NA
ATOM      7  C   UNL     1     -20.088  18.865 -21.902  1.00  0.00     0.118 A 
ATOM      8  C   UNL     1     -21.776  17.826 -21.087  1.00  0.00     0.197 A 
ATOM      9  N   UNL     1     -20.886  18.785 -20.844  1.00  0.00    -0.350 N 
ENDBRANCH   3   5
ENDBRANCH   2   3
BRANCH   2  10
ATOM     10  C   UNL     1     -20.881  16.827 -26.511  1.00  0.00     0.045 A 
ATOM     11  C   UNL     1     -19.951  16.730 -27.528  1.00  0.00     0.027 A 
ATOM     12  C   UNL     1     -22.208  17.174 -26.781  1.00  0.00     0.027 A 
ATOM     13  C   UNL     1     -20.347  16.963 -28.857  1.00  0.00     0.006 A 
ATOM     14  C   UNL     1     -22.603  17.406 -28.105  1.00  0.00     0.006 A 
ATOM     15  C   UNL     1     -21.668  17.304 -29.143  1.00  0.00    -0.042 A 
BRANCH  15  16
ATOM     16  C   UNL     1     -22.118  17.561 -30.629  1.00  0.00    -0.013 C 
ATOM     17  C   UNL     1     -23.564  18.048 -30.655  1.00  0.00     0.016 C 
ATOM     18  C   UNL     1     -21.253  18.607 -31.364  1.00  0.00     0.016 C 
ATOM     19  C   UNL     1     -22.003  16.233 -31.384  1.00  0.00     0.016 C 
ENDBRANCH  15  16
ENDBRANCH   2  10
ENDBRANCH   1   2
BRANCH   1  20
ATOM     20  C   UNL     1     -19.996  14.754 -23.452  1.00  0.00     0.003 A 
ATOM     21  C   UNL     1     -18.631  14.792 -23.544  1.00  0.00     0.117 A 
ATOM     22  C   UNL     1     -20.604  14.174 -22.395  1.00  0.00     0.009 A 
ATOM     23  N   UNL     1     -17.867  14.222 -22.585  1.00  0.00    -0.264 NA
ATOM     24  C   UNL     1     -19.829  13.613 -21.411  1.00  0.00     0.020 A 
ATOM     25  C   UNL     1     -18.452  13.648 -21.522  1.00  0.00     0.111 A 
ENDBRANCH   1  20
BRANCH   1  26
ATOM     26  C   UNL     1     -20.723  14.244 -25.655  1.00  0.00     0.248 C 
ATOM     27  O   UNL     1     -19.788  13.485 -25.684  1.00  0.00    -0.272 OA
ATOM     28  N   UNL     1     -21.813  14.162 -26.642  1.00  0.00    -0.351 N 
ATOM     29  H   UNL     1     -22.469  14.713 -26.571  1.00  0.00     0.163 HD
BRANCH  28  30
ATOM     30  C   UNL     1     -21.833  13.205 -27.721  1.00  0.00     0.082 C 
ATOM     31  C   UNL     1     -20.586  13.447 -28.589  1.00  0.00     0.025 C 
ATOM     32  C   UNL     1     -23.100  13.483 -28.526  1.00  0.00     0.025 C 
ATOM     33  C   UNL     1     -20.674  12.728 -29.945  1.00  0.00     0.002 C 
ATOM     34  C   UNL     1     -23.188  12.605 -29.772  1.00  0.00     0.002 C 
ATOM     35  C   UNL     1     -22.004  12.867 -30.657  1.00  0.00     0.000 C 
ENDBRANCH  28  30
ENDBRANCH   1  26
TORSDOF 8

ENDMDL
MODEL 9
REMARK VINA RESULT:    -8.270      1.762      2.772
REMARK INTER + INTRA:         -14.072
REMARK INTER:                 -10.656
REMARK INTRA:                  -3.416
REMARK CONF_INDEPENDENT:        2.386
REMARK UNBOUND:                 3.416
REMARK SMILES CC(C)(C)c1ccc(N(C(=O)c2c[nH]cn2)C(C(=O)NC2CCCCC2)c2cccnc2)cc1
REMARK SMILES IDX 17 1 9 2 10 3 11 4 12 5 16 6 13 7 15 8 14 9 8 10 33 11 7 12
REMARK SMILES IDX 34 13 6 14 5 15 2 16 4 17 3 18 1 19 27 20 32 21 28 22 31 23
REMARK SMILES IDX 29 24 30 25 18 26 19 27 20 28 21 30 26 31 22 32 25 33 23 34
REMARK SMILES IDX 24 35
REMARK H PARENT 20 29
REMARK Flexibility Score: inf
ROOT
ATOM      1  C   UNL     1     -20.029  15.894 -26.896  1.00  0.00     0.212 C 
ENDROOT
BRANCH   1   2
ATOM      2  N   UNL     1     -20.648  17.164 -26.659  1.00  0.00    -0.290 N 
BRANCH   2   3
ATOM      3  C   UNL     1     -22.113  17.265 -26.645  1.00  0.00     0.279 C 
ATOM      4  O   UNL     1     -22.662  17.007 -25.631  1.00  0.00    -0.267 OA
BRANCH   3   5
ATOM      5  C   UNL     1     -22.915  17.684 -27.898  1.00  0.00     0.146 A 
ATOM      6  N   UNL     1     -22.703  17.203 -29.104  1.00  0.00    -0.232 NA
ATOM      7  C   UNL     1     -23.928  18.619 -28.002  1.00  0.00     0.118 A 
ATOM      8  C   UNL     1     -23.563  17.804 -29.951  1.00  0.00     0.197 A 
ATOM      9  N   UNL     1     -24.308  18.674 -29.273  1.00  0.00    -0.350 N 
ENDBRANCH   3   5
ENDBRANCH   2   3
BRANCH   2  10
ATOM     10  C   UNL     1     -19.749  18.341 -26.602  1.00  0.00     0.045 A 
ATOM     11  C   UNL     1     -19.742  19.182 -25.505  1.00  0.00     0.027 A 
ATOM     12  C   UNL     1     -18.924  18.589 -27.703  1.00  0.00     0.027 A 
ATOM     13  C   UNL     1     -18.878  20.291 -25.486  1.00  0.00     0.006 A 
ATOM     14  C   UNL     1     -18.063  19.694 -27.683  1.00  0.00     0.006 A 
ATOM     15  C   UNL     1     -18.044  20.548 -26.573  1.00  0.00    -0.042 A 
BRANCH  15  16
ATOM     16  C   UNL     1     -17.072  21.785 -26.554  1.00  0.00    -0.013 C 
ATOM     17  C   UNL     1     -17.750  22.966 -25.866  1.00  0.00     0.016 C 
ATOM     18  C   UNL     1     -15.740  21.512 -25.822  1.00  0.00     0.016 C 
ATOM     19  C   UNL     1     -16.750  22.144 -28.008  1.00  0.00     0.016 C 
ENDBRANCH  15  16
ENDBRANCH   2  10
ENDBRANCH   1   2
BRANCH   1  20
ATOM     20  C   UNL     1     -20.764  14.891 -27.734  1.00  0.00     0.003 A 
ATOM     21  C   UNL     1     -20.437  14.696 -29.049  1.00  0.00     0.117 A 
ATOM     22  C   UNL     1     -21.782  14.210 -27.166  1.00  0.00     0.009 A 
ATOM     23  N   UNL     1     -21.148  13.833 -29.808  1.00  0.00    -0.264 NA
ATOM     24  C   UNL     1     -22.493  13.320 -27.930  1.00  0.00     0.020 A 
ATOM     25  C   UNL     1     -22.159  13.140 -29.259  1.00  0.00     0.111 A 
ENDBRANCH   1  20
BRANCH   1  26
ATOM     26  C   UNL     1     -19.911  15.150 -25.533  1.00  0.00     0.248 C 
ATOM     27  O   UNL     1     -19.378  14.074 -25.448  1.00  0.00    -0.272 OA
ATOM     28  N   UNL     1     -20.436  15.846 -24.345  1.00  0.00    -0.351 N 
ATOM     29  H   UNL     1     -20.792  16.621 -24.451  1.00  0.00     0.163 HD
BRANCH  28  30
ATOM     30  C   UNL     1     -20.382  15.291 -23.015  1.00  0.00     0.082 C 
ATOM     31  C   UNL     1     -18.919  14.916 -22.719  1.00  0.00     0.025 C 
ATOM     32  C   UNL     1     -21.256  14.040 -23.030  1.00  0.00     0.025 C 
ATOM     33  C   UNL     1     -18.791  14.010 -21.485  1.00  0.00     0.002 C 
ATOM     34  C   UNL     1     -21.198  13.288 -21.702  1.00  0.00     0.002 C 
ATOM     35  C   UNL     1     -19.784  12.868 -21.422  1.00  0.00     0.000 C 
ENDBRANCH  28  30
ENDBRANCH   1  26
TORSDOF 8

ENDMDL
