MODEL 1
REMARK VINA RESULT:    -9.303      0.000      0.000
REMARK INTER + INTRA:         -15.029
REMARK INTER:                 -11.690
REMARK INTRA:                  -3.340
REMARK CONF_INDEPENDENT:        2.386
REMARK UNBOUND:                 3.340
REMARK SMILES CC(C)(C)c1ccc(N(C(=O)c2c[nH]cn2)C(C(=O)NC2CCCCC2)c2cccnc2)cc1
REMARK SMILES IDX 17 1 9 2 10 3 11 4 12 5 16 6 13 7 15 8 14 9 8 10 33 11 7 12
REMARK SMILES IDX 34 13 6 14 5 15 2 16 4 17 3 18 1 19 27 20 32 21 28 22 31 23
REMARK SMILES IDX 29 24 30 25 18 26 19 27 20 28 21 30 26 31 22 32 25 33 23 34
REMARK SMILES IDX 24 35
REMARK H PARENT 20 29
REMARK Flexibility Score: inf
ROOT
ATOM      1  C   UNL     1     -20.544  15.234 -27.450  1.00  0.00     0.212 C 
ENDROOT
BRANCH   1   2
ATOM      2  N   UNL     1     -21.066  16.394 -26.792  1.00  0.00    -0.290 N 
BRANCH   2   3
ATOM      3  C   UNL     1     -22.422  16.358 -26.228  1.00  0.00     0.279 C 
ATOM      4  O   UNL     1     -23.282  15.929 -26.916  1.00  0.00    -0.267 OA
BRANCH   3   5
ATOM      5  C   UNL     1     -22.726  16.862 -24.798  1.00  0.00     0.146 A 
ATOM      6  N   UNL     1     -22.609  16.123 -23.716  1.00  0.00    -0.232 NA
ATOM      7  C   UNL     1     -23.190  18.101 -24.400  1.00  0.00     0.118 A 
ATOM      8  C   UNL     1     -22.975  16.872 -22.657  1.00  0.00     0.197 A 
ATOM      9  N   UNL     1     -23.335  18.081 -23.080  1.00  0.00    -0.350 N 
ENDBRANCH   3   5
ENDBRANCH   2   3
BRANCH   2  10
ATOM     10  C   UNL     1     -20.247  17.627 -26.866  1.00  0.00     0.045 A 
ATOM     11  C   UNL     1     -19.885  18.171 -28.084  1.00  0.00     0.027 A 
ATOM     12  C   UNL     1     -19.831  18.210 -25.666  1.00  0.00     0.027 A 
ATOM     13  C   UNL     1     -19.104  19.340 -28.117  1.00  0.00     0.006 A 
ATOM     14  C   UNL     1     -19.054  19.375 -25.700  1.00  0.00     0.006 A 
ATOM     15  C   UNL     1     -18.687  19.938 -26.929  1.00  0.00    -0.042 A 
BRANCH  15  16
ATOM     16  C   UNL     1     -17.818  21.249 -26.961  1.00  0.00    -0.013 C 
ATOM     17  C   UNL     1     -16.378  20.925 -26.574  1.00  0.00     0.016 C 
ATOM     18  C   UNL     1     -17.793  21.939 -28.342  1.00  0.00     0.016 C 
ATOM     19  C   UNL     1     -18.421  22.229 -25.950  1.00  0.00     0.016 C 
ENDBRANCH  15  16
ENDBRANCH   2  10
ENDBRANCH   1   2
BRANCH   1  20
ATOM     20  C   UNL     1     -21.489  14.384 -28.247  1.00  0.00     0.003 A 
ATOM     21  C   UNL     1     -22.083  13.283 -27.693  1.00  0.00     0.117 A 
ATOM     22  C   UNL     1     -21.709  14.715 -29.536  1.00  0.00     0.009 A 
ATOM     23  N   UNL     1     -22.885  12.492 -28.440  1.00  0.00    -0.264 NA
ATOM     24  C   UNL     1     -22.538  13.924 -30.292  1.00  0.00     0.020 A 
ATOM     25  C   UNL     1     -23.124  12.809 -29.723  1.00  0.00     0.111 A 
ENDBRANCH   1  20
BRANCH   1  26
ATOM     26  C   UNL     1     -20.054  14.237 -26.359  1.00  0.00     0.248 C 
ATOM     27  O   UNL     1     -19.378  13.280 -26.640  1.00  0.00    -0.272 OA
ATOM     28  N   UNL     1     -20.413  14.545 -24.964  1.00  0.00    -0.351 N 
ATOM     29  H   UNL     1     -20.882  15.248 -24.809  1.00  0.00     0.163 HD
BRANCH  28  30
ATOM     30  C   UNL     1     -20.016  13.724 -23.846  1.00  0.00     0.082 C 
ATOM     31  C   UNL     1     -21.134  13.793 -22.790  1.00  0.00     0.025 C 
ATOM     32  C   UNL     1     -18.730  14.332 -23.294  1.00  0.00     0.025 C 
ATOM     33  C   UNL     1     -20.681  13.246 -21.427  1.00  0.00     0.002 C 
ATOM     34  C   UNL     1     -18.259  13.619 -22.028  1.00  0.00     0.002 C 
ATOM     35  C   UNL     1     -19.318  13.722 -20.969  1.00  0.00     0.000 C 
ENDBRANCH  28  30
ENDBRANCH   1  26
TORSDOF 8

ENDMDL
MODEL 2
REMARK VINA RESULT:    -9.259      2.524      4.781
REMARK INTER + INTRA:         -14.325
REMARK INTER:                 -11.645
REMARK INTRA:                  -2.680
REMARK CONF_INDEPENDENT:        2.386
REMARK UNBOUND:                 2.680
REMARK SMILES CC(C)(C)c1ccc(N(C(=O)c2c[nH]cn2)C(C(=O)NC2CCCCC2)c2cccnc2)cc1
REMARK SMILES IDX 17 1 9 2 10 3 11 4 12 5 16 6 13 7 15 8 14 9 8 10 33 11 7 12
REMARK SMILES IDX 34 13 6 14 5 15 2 16 4 17 3 18 1 19 27 20 32 21 28 22 31 23
REMARK SMILES IDX 29 24 30 25 18 26 19 27 20 28 21 30 26 31 22 32 25 33 23 34
REMARK SMILES IDX 24 35
REMARK H PARENT 20 29
REMARK Flexibility Score: inf
ROOT
ATOM      1  C   UNL     1     -20.160  15.384 -27.721  1.00  0.00     0.212 C 
ENDROOT
BRANCH   1   2
ATOM      2  N   UNL     1     -20.306  16.677 -28.321  1.00  0.00    -0.290 N 
BRANCH   2   3
ATOM      3  C   UNL     1     -19.493  17.798 -27.831  1.00  0.00     0.279 C 
ATOM      4  O   UNL     1     -18.583  18.140 -28.503  1.00  0.00    -0.267 OA
BRANCH   3   5
ATOM      5  C   UNL     1     -19.801  18.507 -26.492  1.00  0.00     0.146 A 
ATOM      6  N   UNL     1     -19.000  18.491 -25.448  1.00  0.00    -0.232 NA
ATOM      7  C   UNL     1     -20.927  19.223 -26.133  1.00  0.00     0.118 A 
ATOM      8  C   UNL     1     -19.592  19.186 -24.456  1.00  0.00     0.197 A 
ATOM      9  N   UNL     1     -20.774  19.629 -24.878  1.00  0.00    -0.350 N 
ENDBRANCH   3   5
ENDBRANCH   2   3
BRANCH   2  10
ATOM     10  C   UNL     1     -21.402  16.834 -29.305  1.00  0.00     0.045 A 
ATOM     11  C   UNL     1     -22.549  17.536 -28.990  1.00  0.00     0.027 A 
ATOM     12  C   UNL     1     -21.249  16.230 -30.557  1.00  0.00     0.027 A 
ATOM     13  C   UNL     1     -23.571  17.663 -29.949  1.00  0.00     0.006 A 
ATOM     14  C   UNL     1     -22.267  16.357 -31.511  1.00  0.00     0.006 A 
ATOM     15  C   UNL     1     -23.432  17.072 -31.204  1.00  0.00    -0.042 A 
BRANCH  15  16
ATOM     16  C   UNL     1     -24.569  17.216 -32.281  1.00  0.00    -0.013 C 
ATOM     17  C   UNL     1     -25.790  16.404 -31.856  1.00  0.00     0.016 C 
ATOM     18  C   UNL     1     -25.025  18.673 -32.506  1.00  0.00     0.016 C 
ATOM     19  C   UNL     1     -24.022  16.678 -33.607  1.00  0.00     0.016 C 
ENDBRANCH  15  16
ENDBRANCH   2  10
ENDBRANCH   1   2
BRANCH   1  20
ATOM     20  C   UNL     1     -21.102  14.295 -28.143  1.00  0.00     0.003 A 
ATOM     21  C   UNL     1     -22.258  14.056 -27.450  1.00  0.00     0.117 A 
ATOM     22  C   UNL     1     -20.761  13.536 -29.205  1.00  0.00     0.009 A 
ATOM     23  N   UNL     1     -23.067  13.033 -27.805  1.00  0.00    -0.264 NA
ATOM     24  C   UNL     1     -21.590  12.509 -29.579  1.00  0.00     0.020 A 
ATOM     25  C   UNL     1     -22.749  12.271 -28.865  1.00  0.00     0.111 A 
ENDBRANCH   1  20
BRANCH   1  26
ATOM     26  C   UNL     1     -20.479  15.515 -26.203  1.00  0.00     0.248 C 
ATOM     27  O   UNL     1     -21.434  16.137 -25.813  1.00  0.00    -0.272 OA
ATOM     28  N   UNL     1     -19.589  14.804 -25.269  1.00  0.00    -0.351 N 
ATOM     29  H   UNL     1     -18.930  14.358 -25.594  1.00  0.00     0.163 HD
BRANCH  28  30
ATOM     30  C   UNL     1     -19.768  14.819 -23.838  1.00  0.00     0.082 C 
ATOM     31  C   UNL     1     -18.385  14.643 -23.187  1.00  0.00     0.025 C 
ATOM     32  C   UNL     1     -20.666  13.633 -23.499  1.00  0.00     0.025 C 
ATOM     33  C   UNL     1     -18.485  14.301 -21.692  1.00  0.00     0.002 C 
ATOM     34  C   UNL     1     -20.846  13.466 -21.991  1.00  0.00     0.002 C 
ATOM     35  C   UNL     1     -19.510  13.241 -21.346  1.00  0.00     0.000 C 
ENDBRANCH  28  30
ENDBRANCH   1  26
TORSDOF 8

ENDMDL
MODEL 3
REMARK VINA RESULT:    -9.225      2.119      6.773
REMARK INTER + INTRA:         -14.074
REMARK INTER:                 -11.611
REMARK INTRA:                  -2.463
REMARK CONF_INDEPENDENT:        2.386
REMARK UNBOUND:                 2.463
REMARK SMILES CC(C)(C)c1ccc(N(C(=O)c2c[nH]cn2)C(C(=O)NC2CCCCC2)c2cccnc2)cc1
REMARK SMILES IDX 17 1 9 2 10 3 11 4 12 5 16 6 13 7 15 8 14 9 8 10 33 11 7 12
REMARK SMILES IDX 34 13 6 14 5 15 2 16 4 17 3 18 1 19 27 20 32 21 28 22 31 23
REMARK SMILES IDX 29 24 30 25 18 26 19 27 20 28 21 30 26 31 22 32 25 33 23 34
REMARK SMILES IDX 24 35
REMARK H PARENT 20 29
REMARK Flexibility Score: inf
ROOT
ATOM      1  C   UNL     1     -20.903  16.712 -28.005  1.00  0.00     0.212 C 
ENDROOT
BRANCH   1   2
ATOM      2  N   UNL     1     -20.535  15.396 -27.574  1.00  0.00    -0.290 N 
BRANCH   2   3
ATOM      3  C   UNL     1     -20.292  14.347 -28.573  1.00  0.00     0.279 C 
ATOM      4  O   UNL     1     -19.246  14.359 -29.124  1.00  0.00    -0.267 OA
BRANCH   3   5
ATOM      5  C   UNL     1     -21.351  13.271 -28.904  1.00  0.00     0.146 A 
ATOM      6  N   UNL     1     -21.309  12.498 -29.967  1.00  0.00    -0.232 NA
ATOM      7  C   UNL     1     -22.503  12.952 -28.210  1.00  0.00     0.118 A 
ATOM      8  C   UNL     1     -22.396  11.700 -29.947  1.00  0.00     0.197 A 
ATOM      9  N   UNL     1     -23.127  11.985 -28.872  1.00  0.00    -0.350 N 
ENDBRANCH   3   5
ENDBRANCH   2   3
BRANCH   2  10
ATOM     10  C   UNL     1     -20.584  15.136 -26.116  1.00  0.00     0.045 A 
ATOM     11  C   UNL     1     -21.408  15.873 -25.286  1.00  0.00     0.027 A 
ATOM     12  C   UNL     1     -19.754  14.137 -25.600  1.00  0.00     0.027 A 
ATOM     13  C   UNL     1     -21.427  15.602 -23.907  1.00  0.00     0.006 A 
ATOM     14  C   UNL     1     -19.773  13.867 -24.226  1.00  0.00     0.006 A 
ATOM     15  C   UNL     1     -20.609  14.604 -23.378  1.00  0.00    -0.042 A 
BRANCH  15  16
ATOM     16  C   UNL     1     -20.631  14.293 -21.836  1.00  0.00    -0.013 C 
ATOM     17  C   UNL     1     -21.756  13.310 -21.523  1.00  0.00     0.016 C 
ATOM     18  C   UNL     1     -19.312  13.686 -21.310  1.00  0.00     0.016 C 
ATOM     19  C   UNL     1     -20.874  15.614 -21.100  1.00  0.00     0.016 C 
ENDBRANCH  15  16
ENDBRANCH   2  10
ENDBRANCH   1   2
BRANCH   1  20
ATOM     20  C   UNL     1     -21.575  16.861 -29.338  1.00  0.00     0.003 A 
ATOM     21  C   UNL     1     -21.082  17.718 -30.284  1.00  0.00     0.117 A 
ATOM     22  C   UNL     1     -22.701  16.151 -29.565  1.00  0.00     0.009 A 
ATOM     23  N   UNL     1     -21.733  17.887 -31.456  1.00  0.00    -0.264 NA
ATOM     24  C   UNL     1     -23.352  16.307 -30.762  1.00  0.00     0.020 A 
ATOM     25  C   UNL     1     -22.850  17.183 -31.705  1.00  0.00     0.111 A 
ENDBRANCH   1  20
BRANCH   1  26
ATOM     26  C   UNL     1     -19.597  17.536 -28.209  1.00  0.00     0.248 C 
ATOM     27  O   UNL     1     -18.628  17.058 -28.740  1.00  0.00    -0.272 OA
ATOM     28  N   UNL     1     -19.620  18.942 -27.768  1.00  0.00    -0.351 N 
ATOM     29  H   UNL     1     -20.339  19.245 -27.410  1.00  0.00     0.163 HD
BRANCH  28  30
ATOM     30  C   UNL     1     -18.493  19.832 -27.907  1.00  0.00     0.082 C 
ATOM     31  C   UNL     1     -17.846  19.994 -26.520  1.00  0.00     0.025 C 
ATOM     32  C   UNL     1     -19.051  21.168 -28.389  1.00  0.00     0.025 C 
ATOM     33  C   UNL     1     -16.861  21.173 -26.473  1.00  0.00     0.002 C 
ATOM     34  C   UNL     1     -17.968  22.242 -28.471  1.00  0.00     0.002 C 
ATOM     35  C   UNL     1     -17.362  22.450 -27.114  1.00  0.00     0.000 C 
ENDBRANCH  28  30
ENDBRANCH   1  26
TORSDOF 8

ENDMDL
MODEL 4
REMARK VINA RESULT:    -9.142      1.153      1.597
REMARK INTER + INTRA:         -14.702
REMARK INTER:                 -11.528
REMARK INTRA:                  -3.173
REMARK CONF_INDEPENDENT:        2.386
REMARK UNBOUND:                 3.173
REMARK SMILES CC(C)(C)c1ccc(N(C(=O)c2c[nH]cn2)C(C(=O)NC2CCCCC2)c2cccnc2)cc1
REMARK SMILES IDX 17 1 9 2 10 3 11 4 12 5 16 6 13 7 15 8 14 9 8 10 33 11 7 12
REMARK SMILES IDX 34 13 6 14 5 15 2 16 4 17 3 18 1 19 27 20 32 21 28 22 31 23
REMARK SMILES IDX 29 24 30 25 18 26 19 27 20 28 21 30 26 31 22 32 25 33 23 34
REMARK SMILES IDX 24 35
REMARK H PARENT 20 29
REMARK Flexibility Score: inf
ROOT
ATOM      1  C   UNL     1     -20.469  15.090 -27.425  1.00  0.00     0.212 C 
ENDROOT
BRANCH   1   2
ATOM      2  N   UNL     1     -21.028  16.251 -26.798  1.00  0.00    -0.290 N 
BRANCH   2   3
ATOM      3  C   UNL     1     -22.400  16.204 -26.279  1.00  0.00     0.279 C 
ATOM      4  O   UNL     1     -22.728  15.223 -25.707  1.00  0.00    -0.267 OA
BRANCH   3   5
ATOM      5  C   UNL     1     -23.387  17.380 -26.468  1.00  0.00     0.146 A 
ATOM      6  N   UNL     1     -24.249  17.772 -25.555  1.00  0.00    -0.232 NA
ATOM      7  C   UNL     1     -23.573  18.180 -27.579  1.00  0.00     0.118 A 
ATOM      8  C   UNL     1     -24.957  18.800 -26.065  1.00  0.00     0.197 A 
ATOM      9  N   UNL     1     -24.544  19.043 -27.306  1.00  0.00    -0.350 N 
ENDBRANCH   3   5
ENDBRANCH   2   3
BRANCH   2  10
ATOM     10  C   UNL     1     -20.222  17.493 -26.862  1.00  0.00     0.045 A 
ATOM     11  C   UNL     1     -19.651  17.914 -28.048  1.00  0.00     0.027 A 
ATOM     12  C   UNL     1     -20.039  18.217 -25.680  1.00  0.00     0.027 A 
ATOM     13  C   UNL     1     -18.891  19.097 -28.072  1.00  0.00     0.006 A 
ATOM     14  C   UNL     1     -19.282  19.396 -25.705  1.00  0.00     0.006 A 
ATOM     15  C   UNL     1     -18.704  19.833 -26.903  1.00  0.00    -0.042 A 
BRANCH  15  16
ATOM     16  C   UNL     1     -17.859  21.159 -26.926  1.00  0.00    -0.013 C 
ATOM     17  C   UNL     1     -18.192  21.964 -28.179  1.00  0.00     0.016 C 
ATOM     18  C   UNL     1     -18.103  22.068 -25.702  1.00  0.00     0.016 C 
ATOM     19  C   UNL     1     -16.378  20.766 -26.938  1.00  0.00     0.016 C 
ENDBRANCH  15  16
ENDBRANCH   2  10
ENDBRANCH   1   2
BRANCH   1  20
ATOM     20  C   UNL     1     -21.374  14.223 -28.249  1.00  0.00     0.003 A 
ATOM     21  C   UNL     1     -22.132  13.243 -27.667  1.00  0.00     0.117 A 
ATOM     22  C   UNL     1     -21.393  14.413 -29.585  1.00  0.00     0.009 A 
ATOM     23  N   UNL     1     -22.896  12.429 -28.430  1.00  0.00    -0.264 NA
ATOM     24  C   UNL     1     -22.183  13.601 -30.359  1.00  0.00     0.020 A 
ATOM     25  C   UNL     1     -22.936  12.608 -29.760  1.00  0.00     0.111 A 
ENDBRANCH   1  20
BRANCH   1  26
ATOM     26  C   UNL     1     -20.013  14.108 -26.305  1.00  0.00     0.248 C 
ATOM     27  O   UNL     1     -19.391  13.108 -26.561  1.00  0.00    -0.272 OA
ATOM     28  N   UNL     1     -20.331  14.484 -24.917  1.00  0.00    -0.351 N 
ATOM     29  H   UNL     1     -20.760  15.216 -24.781  1.00  0.00     0.163 HD
BRANCH  28  30
ATOM     30  C   UNL     1     -19.958  13.684 -23.776  1.00  0.00     0.082 C 
ATOM     31  C   UNL     1     -21.102  13.765 -22.750  1.00  0.00     0.025 C 
ATOM     32  C   UNL     1     -18.689  14.307 -23.203  1.00  0.00     0.025 C 
ATOM     33  C   UNL     1     -20.680  13.243 -21.367  1.00  0.00     0.002 C 
ATOM     34  C   UNL     1     -18.246  13.618 -21.914  1.00  0.00     0.002 C 
ATOM     35  C   UNL     1     -19.331  13.733 -20.883  1.00  0.00     0.000 C 
ENDBRANCH  28  30
ENDBRANCH   1  26
TORSDOF 8

ENDMDL
MODEL 5
REMARK VINA RESULT:    -9.141      1.932      3.218
REMARK INTER + INTRA:         -14.274
REMARK INTER:                 -11.528
REMARK INTRA:                  -2.746
REMARK CONF_INDEPENDENT:        2.386
REMARK UNBOUND:                 2.746
REMARK SMILES CC(C)(C)c1ccc(N(C(=O)c2c[nH]cn2)C(C(=O)NC2CCCCC2)c2cccnc2)cc1
REMARK SMILES IDX 17 1 9 2 10 3 11 4 12 5 16 6 13 7 15 8 14 9 8 10 33 11 7 12
REMARK SMILES IDX 34 13 6 14 5 15 2 16 4 17 3 18 1 19 27 20 32 21 28 22 31 23
REMARK SMILES IDX 29 24 30 25 18 26 19 27 20 28 21 30 26 31 22 32 25 33 23 34
REMARK SMILES IDX 24 35
REMARK H PARENT 20 29
REMARK Flexibility Score: inf
ROOT
ATOM      1  C   UNL     1     -20.325  15.635 -27.599  1.00  0.00     0.212 C 
ENDROOT
BRANCH   1   2
ATOM      2  N   UNL     1     -20.873  16.938 -27.835  1.00  0.00    -0.290 N 
BRANCH   2   3
ATOM      3  C   UNL     1     -22.202  17.065 -28.448  1.00  0.00     0.279 C 
ATOM      4  O   UNL     1     -23.101  17.348 -27.736  1.00  0.00    -0.267 OA
BRANCH   3   5
ATOM      5  C   UNL     1     -22.429  16.837 -29.960  1.00  0.00     0.146 A 
ATOM      6  N   UNL     1     -22.914  15.727 -30.473  1.00  0.00    -0.232 NA
ATOM      7  C   UNL     1     -22.149  17.686 -31.013  1.00  0.00     0.118 A 
ATOM      8  C   UNL     1     -22.954  15.868 -31.813  1.00  0.00     0.197 A 
ATOM      9  N   UNL     1     -22.481  17.068 -32.141  1.00  0.00    -0.350 N 
ENDBRANCH   3   5
ENDBRANCH   2   3
BRANCH   2  10
ATOM     10  C   UNL     1     -19.977  18.091 -27.584  1.00  0.00     0.045 A 
ATOM     11  C   UNL     1     -18.701  18.132 -28.113  1.00  0.00     0.027 A 
ATOM     12  C   UNL     1     -20.454  19.128 -26.777  1.00  0.00     0.027 A 
ATOM     13  C   UNL     1     -17.877  19.241 -27.853  1.00  0.00     0.006 A 
ATOM     14  C   UNL     1     -19.633  20.233 -26.519  1.00  0.00     0.006 A 
ATOM     15  C   UNL     1     -18.340  20.286 -27.055  1.00  0.00    -0.042 A 
BRANCH  15  16
ATOM     16  C   UNL     1     -17.424  21.532 -26.765  1.00  0.00    -0.013 C 
ATOM     17  C   UNL     1     -18.109  22.458 -25.765  1.00  0.00     0.016 C 
ATOM     18  C   UNL     1     -16.039  21.160 -26.194  1.00  0.00     0.016 C 
ATOM     19  C   UNL     1     -17.209  22.267 -28.092  1.00  0.00     0.016 C 
ENDBRANCH  15  16
ENDBRANCH   2  10
ENDBRANCH   1   2
BRANCH   1  20
ATOM     20  C   UNL     1     -21.078  14.444 -28.115  1.00  0.00     0.003 A 
ATOM     21  C   UNL     1     -22.189  13.978 -27.465  1.00  0.00     0.117 A 
ATOM     22  C   UNL     1     -20.610  13.825 -29.218  1.00  0.00     0.009 A 
ATOM     23  N   UNL     1     -22.821  12.868 -27.906  1.00  0.00    -0.264 NA
ATOM     24  C   UNL     1     -21.262  12.709 -29.679  1.00  0.00     0.020 A 
ATOM     25  C   UNL     1     -22.376  12.242 -29.008  1.00  0.00     0.111 A 
ENDBRANCH   1  20
BRANCH   1  26
ATOM     26  C   UNL     1     -20.328  15.378 -26.064  1.00  0.00     0.248 C 
ATOM     27  O   UNL     1     -20.794  16.179 -25.294  1.00  0.00    -0.272 OA
ATOM     28  N   UNL     1     -19.781  14.092 -25.601  1.00  0.00    -0.351 N 
ATOM     29  H   UNL     1     -19.475  13.544 -26.188  1.00  0.00     0.163 HD
BRANCH  28  30
ATOM     30  C   UNL     1     -19.732  13.707 -24.211  1.00  0.00     0.082 C 
ATOM     31  C   UNL     1     -21.112  13.993 -23.594  1.00  0.00     0.025 C 
ATOM     32  C   UNL     1     -18.668  14.581 -23.554  1.00  0.00     0.025 C 
ATOM     33  C   UNL     1     -21.082  13.949 -22.058  1.00  0.00     0.002 C 
ATOM     34  C   UNL     1     -18.592  14.352 -22.046  1.00  0.00     0.002 C 
ATOM     35  C   UNL     1     -19.917  14.677 -21.420  1.00  0.00     0.000 C 
ENDBRANCH  28  30
ENDBRANCH   1  26
TORSDOF 8

ENDMDL
MODEL 6
REMARK VINA RESULT:    -8.899      3.182      7.169
REMARK INTER + INTRA:         -14.600
REMARK INTER:                 -11.286
REMARK INTRA:                  -3.314
REMARK CONF_INDEPENDENT:        2.386
REMARK UNBOUND:                 3.314
REMARK SMILES CC(C)(C)c1ccc(N(C(=O)c2c[nH]cn2)C(C(=O)NC2CCCCC2)c2cccnc2)cc1
REMARK SMILES IDX 17 1 9 2 10 3 11 4 12 5 16 6 13 7 15 8 14 9 8 10 33 11 7 12
REMARK SMILES IDX 34 13 6 14 5 15 2 16 4 17 3 18 1 19 27 20 32 21 28 22 31 23
REMARK SMILES IDX 29 24 30 25 18 26 19 27 20 28 21 30 26 31 22 32 25 33 23 34
REMARK SMILES IDX 24 35
REMARK H PARENT 20 29
REMARK Flexibility Score: inf
ROOT
ATOM      1  C   UNL     1     -19.630  20.387 -27.161  1.00  0.00     0.212 C 
ENDROOT
BRANCH   1   2
ATOM      2  N   UNL     1     -19.849  19.829 -28.463  1.00  0.00    -0.290 N 
BRANCH   2   3
ATOM      3  C   UNL     1     -20.012  20.724 -29.616  1.00  0.00     0.279 C 
ATOM      4  O   UNL     1     -19.752  21.865 -29.455  1.00  0.00    -0.267 OA
BRANCH   3   5
ATOM      5  C   UNL     1     -20.506  20.207 -30.987  1.00  0.00     0.146 A 
ATOM      6  N   UNL     1     -21.382  19.237 -31.137  1.00  0.00    -0.232 NA
ATOM      7  C   UNL     1     -20.123  20.612 -32.252  1.00  0.00     0.118 A 
ATOM      8  C   UNL     1     -21.561  19.036 -32.458  1.00  0.00     0.197 A 
ATOM      9  N   UNL     1     -20.784  19.877 -33.137  1.00  0.00    -0.350 N 
ENDBRANCH   3   5
ENDBRANCH   2   3
BRANCH   2  10
ATOM     10  C   UNL     1     -20.058  18.364 -28.532  1.00  0.00     0.045 A 
ATOM     11  C   UNL     1     -19.003  17.502 -28.760  1.00  0.00     0.027 A 
ATOM     12  C   UNL     1     -21.361  17.880 -28.380  1.00  0.00     0.027 A 
ATOM     13  C   UNL     1     -19.238  16.116 -28.822  1.00  0.00     0.006 A 
ATOM     14  C   UNL     1     -21.595  16.500 -28.441  1.00  0.00     0.006 A 
ATOM     15  C   UNL     1     -20.531  15.618 -28.667  1.00  0.00    -0.042 A 
BRANCH  15  16
ATOM     16  C   UNL     1     -20.798  14.069 -28.729  1.00  0.00    -0.013 C 
ATOM     17  C   UNL     1     -21.528  13.619 -27.467  1.00  0.00     0.016 C 
ATOM     18  C   UNL     1     -21.645  13.638 -29.945  1.00  0.00     0.016 C 
ATOM     19  C   UNL     1     -19.439  13.368 -28.823  1.00  0.00     0.016 C 
ENDBRANCH  15  16
ENDBRANCH   2  10
ENDBRANCH   1   2
BRANCH   1  20
ATOM     20  C   UNL     1     -18.408  21.228 -26.945  1.00  0.00     0.003 A 
ATOM     21  C   UNL     1     -17.279  21.035 -27.694  1.00  0.00     0.117 A 
ATOM     22  C   UNL     1     -18.440  22.158 -25.967  1.00  0.00     0.009 A 
ATOM     23  N   UNL     1     -16.164  21.760 -27.447  1.00  0.00    -0.264 NA
ATOM     24  C   UNL     1     -17.316  22.908 -25.728  1.00  0.00     0.020 A 
ATOM     25  C   UNL     1     -16.179  22.696 -26.484  1.00  0.00     0.111 A 
ENDBRANCH   1  20
BRANCH   1  26
ATOM     26  C   UNL     1     -19.395  19.214 -26.165  1.00  0.00     0.248 C 
ATOM     27  O   UNL     1     -18.285  18.878 -25.841  1.00  0.00    -0.272 OA
ATOM     28  N   UNL     1     -20.592  18.569 -25.598  1.00  0.00    -0.351 N 
ATOM     29  H   UNL     1     -21.364  18.854 -25.845  1.00  0.00     0.163 HD
BRANCH  28  30
ATOM     30  C   UNL     1     -20.531  17.482 -24.652  1.00  0.00     0.082 C 
ATOM     31  C   UNL     1     -19.588  16.409 -25.224  1.00  0.00     0.025 C 
ATOM     32  C   UNL     1     -21.949  16.929 -24.532  1.00  0.00     0.025 C 
ATOM     33  C   UNL     1     -19.711  15.070 -24.479  1.00  0.00     0.002 C 
ATOM     34  C   UNL     1     -22.005  15.693 -23.637  1.00  0.00     0.002 C 
ATOM     35  C   UNL     1     -21.130  14.616 -24.210  1.00  0.00     0.000 C 
ENDBRANCH  28  30
ENDBRANCH   1  26
TORSDOF 8

ENDMDL
MODEL 7
REMARK VINA RESULT:    -8.537      2.244      5.830
REMARK INTER + INTRA:         -14.121
REMARK INTER:                 -10.924
REMARK INTRA:                  -3.197
REMARK CONF_INDEPENDENT:        2.386
REMARK UNBOUND:                 3.197
REMARK SMILES CC(C)(C)c1ccc(N(C(=O)c2c[nH]cn2)C(C(=O)NC2CCCCC2)c2cccnc2)cc1
REMARK SMILES IDX 17 1 9 2 10 3 11 4 12 5 16 6 13 7 15 8 14 9 8 10 33 11 7 12
REMARK SMILES IDX 34 13 6 14 5 15 2 16 4 17 3 18 1 19 27 20 32 21 28 22 31 23
REMARK SMILES IDX 29 24 30 25 18 26 19 27 20 28 21 30 26 31 22 32 25 33 23 34
REMARK SMILES IDX 24 35
REMARK H PARENT 20 29
REMARK Flexibility Score: inf
ROOT
ATOM      1  C   UNL     1     -21.007  14.958 -24.400  1.00  0.00     0.212 C 
ENDROOT
BRANCH   1   2
ATOM      2  N   UNL     1     -20.775  16.296 -24.855  1.00  0.00    -0.290 N 
BRANCH   2   3
ATOM      3  C   UNL     1     -20.400  17.336 -23.888  1.00  0.00     0.279 C 
ATOM      4  O   UNL     1     -20.567  17.093 -22.743  1.00  0.00    -0.267 OA
BRANCH   3   5
ATOM      5  C   UNL     1     -19.817  18.696 -24.334  1.00  0.00     0.146 A 
ATOM      6  N   UNL     1     -19.002  18.848 -25.356  1.00  0.00    -0.232 NA
ATOM      7  C   UNL     1     -19.993  19.941 -23.762  1.00  0.00     0.118 A 
ATOM      8  C   UNL     1     -18.677  20.154 -25.440  1.00  0.00     0.197 A 
ATOM      9  N   UNL     1     -19.282  20.819 -24.460  1.00  0.00    -0.350 N 
ENDBRANCH   3   5
ENDBRANCH   2   3
BRANCH   2  10
ATOM     10  C   UNL     1     -21.091  16.580 -26.275  1.00  0.00     0.045 A 
ATOM     11  C   UNL     1     -20.099  16.597 -27.238  1.00  0.00     0.027 A 
ATOM     12  C   UNL     1     -22.421  16.853 -26.609  1.00  0.00     0.027 A 
ATOM     13  C   UNL     1     -20.434  16.872 -28.575  1.00  0.00     0.006 A 
ATOM     14  C   UNL     1     -22.754  17.126 -27.942  1.00  0.00     0.006 A 
ATOM     15  C   UNL     1     -21.757  17.140 -28.925  1.00  0.00    -0.042 A 
BRANCH  15  16
ATOM     16  C   UNL     1     -22.138  17.444 -30.421  1.00  0.00    -0.013 C 
ATOM     17  C   UNL     1     -22.054  16.163 -31.246  1.00  0.00     0.016 C 
ATOM     18  C   UNL     1     -23.558  18.024 -30.591  1.00  0.00     0.016 C 
ATOM     19  C   UNL     1     -21.137  18.473 -30.954  1.00  0.00     0.016 C 
ENDBRANCH  15  16
ENDBRANCH   2  10
ENDBRANCH   1   2
BRANCH   1  20
ATOM     20  C   UNL     1     -20.076  14.385 -23.373  1.00  0.00     0.003 A 
ATOM     21  C   UNL     1     -20.533  13.528 -22.409  1.00  0.00     0.117 A 
ATOM     22  C   UNL     1     -18.782  14.766 -23.405  1.00  0.00     0.009 A 
ATOM     23  N   UNL     1     -19.694  13.068 -21.453  1.00  0.00    -0.264 NA
ATOM     24  C   UNL     1     -17.925  14.286 -22.448  1.00  0.00     0.020 A 
ATOM     25  C   UNL     1     -18.401  13.429 -21.473  1.00  0.00     0.111 A 
ENDBRANCH   1  20
BRANCH   1  26
ATOM     26  C   UNL     1     -20.793  13.993 -25.604  1.00  0.00     0.248 C 
ATOM     27  O   UNL     1     -19.780  13.353 -25.723  1.00  0.00    -0.272 OA
ATOM     28  N   UNL     1     -21.905  13.861 -26.560  1.00  0.00    -0.351 N 
ATOM     29  H   UNL     1     -22.616  14.324 -26.425  1.00  0.00     0.163 HD
BRANCH  28  30
ATOM     30  C   UNL     1     -21.859  12.995 -27.712  1.00  0.00     0.082 C 
ATOM     31  C   UNL     1     -20.613  13.369 -28.535  1.00  0.00     0.025 C 
ATOM     32  C   UNL     1     -23.126  13.272 -28.517  1.00  0.00     0.025 C 
ATOM     33  C   UNL     1     -20.642  12.758 -29.945  1.00  0.00     0.002 C 
ATOM     34  C   UNL     1     -23.148  12.494 -29.831  1.00  0.00     0.002 C 
ATOM     35  C   UNL     1     -21.966  12.886 -30.669  1.00  0.00     0.000 C 
ENDBRANCH  28  30
ENDBRANCH   1  26
TORSDOF 8

ENDMDL
MODEL 8
REMARK VINA RESULT:    -8.428      2.547      5.716
REMARK INTER + INTRA:         -14.075
REMARK INTER:                 -10.814
REMARK INTRA:                  -3.261
REMARK CONF_INDEPENDENT:        2.386
REMARK UNBOUND:                 3.261
REMARK SMILES CC(C)(C)c1ccc(N(C(=O)c2c[nH]cn2)C(C(=O)NC2CCCCC2)c2cccnc2)cc1
REMARK SMILES IDX 17 1 9 2 10 3 11 4 12 5 16 6 13 7 15 8 14 9 8 10 33 11 7 12
REMARK SMILES IDX 34 13 6 14 5 15 2 16 4 17 3 18 1 19 27 20 32 21 28 22 31 23
REMARK SMILES IDX 29 24 30 25 18 26 19 27 20 28 21 30 26 31 22 32 25 33 23 34
REMARK SMILES IDX 24 35
REMARK H PARENT 20 29
REMARK Flexibility Score: inf
ROOT
ATOM      1  C   UNL     1     -20.861  15.309 -24.530  1.00  0.00     0.212 C 
ENDROOT
BRANCH   1   2
ATOM      2  N   UNL     1     -20.506  16.579 -25.091  1.00  0.00    -0.290 N 
BRANCH   2   3
ATOM      3  C   UNL     1     -19.931  17.618 -24.227  1.00  0.00     0.279 C 
ATOM      4  O   UNL     1     -19.004  18.217 -24.646  1.00  0.00    -0.267 OA
BRANCH   3   5
ATOM      5  C   UNL     1     -20.503  17.921 -22.823  1.00  0.00     0.146 A 
ATOM      6  N   UNL     1     -21.520  17.281 -22.287  1.00  0.00    -0.232 NA
ATOM      7  C   UNL     1     -20.109  18.891 -21.921  1.00  0.00     0.118 A 
ATOM      8  C   UNL     1     -21.760  17.818 -21.074  1.00  0.00     0.197 A 
ATOM      9  N   UNL     1     -20.897  18.807 -20.856  1.00  0.00    -0.350 N 
ENDBRANCH   3   5
ENDBRANCH   2   3
BRANCH   2  10
ATOM     10  C   UNL     1     -20.900  16.817 -26.500  1.00  0.00     0.045 A 
ATOM     11  C   UNL     1     -19.972  16.750 -27.522  1.00  0.00     0.027 A 
ATOM     12  C   UNL     1     -22.236  17.133 -26.762  1.00  0.00     0.027 A 
ATOM     13  C   UNL     1     -20.380  16.984 -28.847  1.00  0.00     0.006 A 
ATOM     14  C   UNL     1     -22.642  17.365 -28.083  1.00  0.00     0.006 A 
ATOM     15  C   UNL     1     -21.710  17.294 -29.126  1.00  0.00    -0.042 A 
BRANCH  15  16
ATOM     16  C   UNL     1     -22.173  17.551 -30.607  1.00  0.00    -0.013 C 
ATOM     17  C   UNL     1     -23.580  18.140 -30.615  1.00  0.00     0.016 C 
ATOM     18  C   UNL     1     -21.251  18.516 -31.383  1.00  0.00     0.016 C 
ATOM     19  C   UNL     1     -22.168  16.202 -31.334  1.00  0.00     0.016 C 
ENDBRANCH  15  16
ENDBRANCH   2  10
ENDBRANCH   1   2
BRANCH   1  20
ATOM     20  C   UNL     1     -19.989  14.742 -23.449  1.00  0.00     0.003 A 
ATOM     21  C   UNL     1     -18.625  14.783 -23.550  1.00  0.00     0.117 A 
ATOM     22  C   UNL     1     -20.589  14.161 -22.389  1.00  0.00     0.009 A 
ATOM     23  N   UNL     1     -17.854  14.214 -22.596  1.00  0.00    -0.264 NA
ATOM     24  C   UNL     1     -19.807  13.600 -21.410  1.00  0.00     0.020 A 
ATOM     25  C   UNL     1     -18.431  13.638 -21.529  1.00  0.00     0.111 A 
ENDBRANCH   1  20
BRANCH   1  26
ATOM     26  C   UNL     1     -20.729  14.232 -25.647  1.00  0.00     0.248 C 
ATOM     27  O   UNL     1     -19.795  13.473 -25.681  1.00  0.00    -0.272 OA
ATOM     28  N   UNL     1     -21.824  14.152 -26.629  1.00  0.00    -0.351 N 
ATOM     29  H   UNL     1     -22.479  14.703 -26.555  1.00  0.00     0.163 HD
BRANCH  28  30
ATOM     30  C   UNL     1     -21.850  13.196 -27.709  1.00  0.00     0.082 C 
ATOM     31  C   UNL     1     -20.593  13.421 -28.568  1.00  0.00     0.025 C 
ATOM     32  C   UNL     1     -23.106  13.492 -28.523  1.00  0.00     0.025 C 
ATOM     33  C   UNL     1     -20.681  12.704 -29.925  1.00  0.00     0.002 C 
ATOM     34  C   UNL     1     -23.197  12.616 -29.771  1.00  0.00     0.002 C 
ATOM     35  C   UNL     1     -22.003  12.861 -30.647  1.00  0.00     0.000 C 
ENDBRANCH  28  30
ENDBRANCH   1  26
TORSDOF 8

ENDMDL
MODEL 9
REMARK VINA RESULT:    -8.397      1.373      4.196
REMARK INTER + INTRA:         -14.048
REMARK INTER:                 -10.783
REMARK INTRA:                  -3.265
REMARK CONF_INDEPENDENT:        2.386
REMARK UNBOUND:                 3.265
REMARK SMILES CC(C)(C)c1ccc(N(C(=O)c2c[nH]cn2)C(C(=O)NC2CCCCC2)c2cccnc2)cc1
REMARK SMILES IDX 17 1 9 2 10 3 11 4 12 5 16 6 13 7 15 8 14 9 8 10 33 11 7 12
REMARK SMILES IDX 34 13 6 14 5 15 2 16 4 17 3 18 1 19 27 20 32 21 28 22 31 23
REMARK SMILES IDX 29 24 30 25 18 26 19 27 20 28 21 30 26 31 22 32 25 33 23 34
REMARK SMILES IDX 24 35
REMARK H PARENT 20 29
REMARK Flexibility Score: inf
ROOT
ATOM      1  C   UNL     1     -22.196  16.137 -26.072  1.00  0.00     0.212 C 
ENDROOT
BRANCH   1   2
ATOM      2  N   UNL     1     -20.960  16.063 -26.794  1.00  0.00    -0.290 N 
BRANCH   2   3
ATOM      3  C   UNL     1     -20.427  14.752 -27.186  1.00  0.00     0.279 C 
ATOM      4  O   UNL     1     -19.377  14.441 -26.742  1.00  0.00    -0.267 OA
BRANCH   3   5
ATOM      5  C   UNL     1     -21.195  13.811 -28.143  1.00  0.00     0.146 A 
ATOM      6  N   UNL     1     -22.407  13.356 -27.913  1.00  0.00    -0.232 NA
ATOM      7  C   UNL     1     -20.773  13.265 -29.340  1.00  0.00     0.118 A 
ATOM      8  C   UNL     1     -22.753  12.551 -28.938  1.00  0.00     0.197 A 
ATOM      9  N   UNL     1     -21.748  12.495 -29.808  1.00  0.00    -0.350 N 
ENDBRANCH   3   5
ENDBRANCH   2   3
BRANCH   2  10
ATOM     10  C   UNL     1     -20.209  17.330 -26.957  1.00  0.00     0.045 A 
ATOM     11  C   UNL     1     -20.101  17.942 -28.192  1.00  0.00     0.027 A 
ATOM     12  C   UNL     1     -19.594  17.878 -25.828  1.00  0.00     0.027 A 
ATOM     13  C   UNL     1     -19.378  19.143 -28.311  1.00  0.00     0.006 A 
ATOM     14  C   UNL     1     -18.875  19.075 -25.947  1.00  0.00     0.006 A 
ATOM     15  C   UNL     1     -18.764  19.705 -27.193  1.00  0.00    -0.042 A 
BRANCH  15  16
ATOM     16  C   UNL     1     -17.960  21.051 -27.320  1.00  0.00    -0.013 C 
ATOM     17  C   UNL     1     -18.045  21.830 -26.011  1.00  0.00     0.016 C 
ATOM     18  C   UNL     1     -16.467  20.848 -27.654  1.00  0.00     0.016 C 
ATOM     19  C   UNL     1     -18.595  21.865 -28.452  1.00  0.00     0.016 C 
ENDBRANCH  15  16
ENDBRANCH   2  10
ENDBRANCH   1   2
BRANCH   1  20
ATOM     20  C   UNL     1     -22.906  17.457 -26.013  1.00  0.00     0.003 A 
ATOM     21  C   UNL     1     -23.852  17.790 -26.944  1.00  0.00     0.117 A 
ATOM     22  C   UNL     1     -22.560  18.321 -25.035  1.00  0.00     0.009 A 
ATOM     23  N   UNL     1     -24.439  19.007 -26.913  1.00  0.00    -0.264 NA
ATOM     24  C   UNL     1     -23.169  19.550 -24.991  1.00  0.00     0.020 A 
ATOM     25  C   UNL     1     -24.116  19.878 -25.943  1.00  0.00     0.111 A 
ENDBRANCH   1  20
BRANCH   1  26
ATOM     26  C   UNL     1     -21.896  15.863 -24.569  1.00  0.00     0.248 C 
ATOM     27  O   UNL     1     -22.753  15.963 -23.729  1.00  0.00    -0.272 OA
ATOM     28  N   UNL     1     -20.531  15.427 -24.229  1.00  0.00    -0.351 N 
ATOM     29  H   UNL     1     -19.957  15.353 -24.864  1.00  0.00     0.163 HD
BRANCH  28  30
ATOM     30  C   UNL     1     -20.111  15.122 -22.883  1.00  0.00     0.082 C 
ATOM     31  C   UNL     1     -18.709  14.489 -22.959  1.00  0.00     0.025 C 
ATOM     32  C   UNL     1     -21.116  14.114 -22.331  1.00  0.00     0.025 C 
ATOM     33  C   UNL     1     -18.305  13.813 -21.639  1.00  0.00     0.002 C 
ATOM     34  C   UNL     1     -20.721  13.618 -20.942  1.00  0.00     0.002 C 
ATOM     35  C   UNL     1     -19.378  12.951 -21.007  1.00  0.00     0.000 C 
ENDBRANCH  28  30
ENDBRANCH   1  26
TORSDOF 8

ENDMDL
