MODEL 1
REMARK VINA RESULT:    -9.391      0.000      0.000
REMARK INTER + INTRA:         -14.141
REMARK INTER:                 -11.778
REMARK INTRA:                  -2.363
REMARK CONF_INDEPENDENT:        2.386
REMARK UNBOUND:                 2.363
REMARK SMILES CC(C)(C)c1ccc(N(C(=O)c2c[nH]cn2)C(C(=O)NC2CCCCC2)c2cccnc2)cc1
REMARK SMILES IDX 17 1 9 2 10 3 11 4 12 5 16 6 13 7 15 8 14 9 8 10 33 11 7 12
REMARK SMILES IDX 34 13 6 14 5 15 2 16 4 17 3 18 1 19 27 20 32 21 28 22 31 23
REMARK SMILES IDX 29 24 30 25 18 26 19 27 20 28 21 30 26 31 22 32 25 33 23 34
REMARK SMILES IDX 24 35
REMARK H PARENT 20 29
REMARK Flexibility Score: inf
ROOT
ATOM      1  C   UNL     1     -20.802  16.697 -28.137  1.00  0.00     0.212 C 
ENDROOT
BRANCH   1   2
ATOM      2  N   UNL     1     -20.372  15.410 -27.677  1.00  0.00    -0.290 N 
BRANCH   2   3
ATOM      3  C   UNL     1     -20.183  14.321 -28.644  1.00  0.00     0.279 C 
ATOM      4  O   UNL     1     -19.141  14.265 -29.198  1.00  0.00    -0.267 OA
BRANCH   3   5
ATOM      5  C   UNL     1     -21.294  13.286 -28.936  1.00  0.00     0.146 A 
ATOM      6  N   UNL     1     -21.317  12.511 -29.999  1.00  0.00    -0.232 NA
ATOM      7  C   UNL     1     -22.433  13.011 -28.204  1.00  0.00     0.118 A 
ATOM      8  C   UNL     1     -22.433  11.756 -29.941  1.00  0.00     0.197 A 
ATOM      9  N   UNL     1     -23.116  12.068 -28.843  1.00  0.00    -0.350 N 
ENDBRANCH   3   5
ENDBRANCH   2   3
BRANCH   2  10
ATOM     10  C   UNL     1     -20.301  15.219 -26.209  1.00  0.00     0.045 A 
ATOM     11  C   UNL     1     -20.211  16.298 -25.351  1.00  0.00     0.027 A 
ATOM     12  C   UNL     1     -20.306  13.910 -25.718  1.00  0.00     0.027 A 
ATOM     13  C   UNL     1     -20.143  16.080 -23.964  1.00  0.00     0.006 A 
ATOM     14  C   UNL     1     -20.239  13.693 -24.335  1.00  0.00     0.006 A 
ATOM     15  C   UNL     1     -20.153  14.781 -23.458  1.00  0.00    -0.042 A 
BRANCH  15  16
ATOM     16  C   UNL     1     -20.083  14.531 -21.907  1.00  0.00    -0.013 C 
ATOM     17  C   UNL     1     -18.628  14.374 -21.473  1.00  0.00     0.016 C 
ATOM     18  C   UNL     1     -20.706  15.669 -21.070  1.00  0.00     0.016 C 
ATOM     19  C   UNL     1     -20.856  13.243 -21.609  1.00  0.00     0.016 C 
ENDBRANCH  15  16
ENDBRANCH   2  10
ENDBRANCH   1   2
BRANCH   1  20
ATOM     20  C   UNL     1     -21.469  16.785 -29.477  1.00  0.00     0.003 A 
ATOM     21  C   UNL     1     -21.022  17.659 -30.431  1.00  0.00     0.117 A 
ATOM     22  C   UNL     1     -22.546  16.003 -29.704  1.00  0.00     0.009 A 
ATOM     23  N   UNL     1     -21.671  17.770 -31.612  1.00  0.00    -0.264 NA
ATOM     24  C   UNL     1     -23.195  16.102 -30.909  1.00  0.00     0.020 A 
ATOM     25  C   UNL     1     -22.739  16.995 -31.860  1.00  0.00     0.111 A 
ENDBRANCH   1  20
BRANCH   1  26
ATOM     26  C   UNL     1     -19.538  17.582 -28.347  1.00  0.00     0.248 C 
ATOM     27  O   UNL     1     -18.629  17.223 -29.050  1.00  0.00    -0.272 OA
ATOM     28  N   UNL     1     -19.529  18.900 -27.689  1.00  0.00    -0.351 N 
ATOM     29  H   UNL     1     -20.208  19.122 -27.212  1.00  0.00     0.163 HD
BRANCH  28  30
ATOM     30  C   UNL     1     -18.437  19.835 -27.806  1.00  0.00     0.082 C 
ATOM     31  C   UNL     1     -17.878  20.086 -26.394  1.00  0.00     0.025 C 
ATOM     32  C   UNL     1     -19.024  21.122 -28.378  1.00  0.00     0.025 C 
ATOM     33  C   UNL     1     -16.950  21.311 -26.346  1.00  0.00     0.002 C 
ATOM     34  C   UNL     1     -17.987  22.240 -28.449  1.00  0.00     0.002 C 
ATOM     35  C   UNL     1     -17.469  22.535 -27.071  1.00  0.00     0.000 C 
ENDBRANCH  28  30
ENDBRANCH   1  26
TORSDOF 8

ENDMDL
MODEL 2
REMARK VINA RESULT:    -9.366      2.202      6.701
REMARK INTER + INTRA:         -15.049
REMARK INTER:                 -11.752
REMARK INTRA:                  -3.297
REMARK CONF_INDEPENDENT:        2.386
REMARK UNBOUND:                 3.297
REMARK SMILES CC(C)(C)c1ccc(N(C(=O)c2c[nH]cn2)C(C(=O)NC2CCCCC2)c2cccnc2)cc1
REMARK SMILES IDX 17 1 9 2 10 3 11 4 12 5 16 6 13 7 15 8 14 9 8 10 33 11 7 12
REMARK SMILES IDX 34 13 6 14 5 15 2 16 4 17 3 18 1 19 27 20 32 21 28 22 31 23
REMARK SMILES IDX 29 24 30 25 18 26 19 27 20 28 21 30 26 31 22 32 25 33 23 34
REMARK SMILES IDX 24 35
REMARK H PARENT 20 29
REMARK Flexibility Score: inf
ROOT
ATOM      1  C   UNL     1     -20.532  15.106 -27.475  1.00  0.00     0.212 C 
ENDROOT
BRANCH   1   2
ATOM      2  N   UNL     1     -21.054  16.281 -26.842  1.00  0.00    -0.290 N 
BRANCH   2   3
ATOM      3  C   UNL     1     -22.400  16.251 -26.254  1.00  0.00     0.279 C 
ATOM      4  O   UNL     1     -23.270  15.812 -26.921  1.00  0.00    -0.267 OA
BRANCH   3   5
ATOM      5  C   UNL     1     -22.680  16.772 -24.826  1.00  0.00     0.146 A 
ATOM      6  N   UNL     1     -22.568  16.039 -23.739  1.00  0.00    -0.232 NA
ATOM      7  C   UNL     1     -23.113  18.024 -24.433  1.00  0.00     0.118 A 
ATOM      8  C   UNL     1     -22.908  16.804 -22.682  1.00  0.00     0.197 A 
ATOM      9  N   UNL     1     -23.246  18.018 -23.112  1.00  0.00    -0.350 N 
ENDBRANCH   3   5
ENDBRANCH   2   3
BRANCH   2  10
ATOM     10  C   UNL     1     -20.247  17.518 -26.967  1.00  0.00     0.045 A 
ATOM     11  C   UNL     1     -19.947  18.053 -28.205  1.00  0.00     0.027 A 
ATOM     12  C   UNL     1     -19.779  18.116 -25.793  1.00  0.00     0.027 A 
ATOM     13  C   UNL     1     -19.176  19.226 -28.287  1.00  0.00     0.006 A 
ATOM     14  C   UNL     1     -19.011  19.285 -25.875  1.00  0.00     0.006 A 
ATOM     15  C   UNL     1     -18.707  19.838 -27.125  1.00  0.00    -0.042 A 
BRANCH  15  16
ATOM     16  C   UNL     1     -17.849  21.154 -27.211  1.00  0.00    -0.013 C 
ATOM     17  C   UNL     1     -18.257  21.958 -28.442  1.00  0.00     0.016 C 
ATOM     18  C   UNL     1     -17.998  22.069 -25.977  1.00  0.00     0.016 C 
ATOM     19  C   UNL     1     -16.378  20.742 -27.322  1.00  0.00     0.016 C 
ENDBRANCH  15  16
ENDBRANCH   2  10
ENDBRANCH   1   2
BRANCH   1  20
ATOM     20  C   UNL     1     -21.475  14.246 -28.262  1.00  0.00     0.003 A 
ATOM     21  C   UNL     1     -22.185  13.243 -27.658  1.00  0.00     0.117 A 
ATOM     22  C   UNL     1     -21.579  14.466 -29.590  1.00  0.00     0.009 A 
ATOM     23  N   UNL     1     -22.984  12.437 -28.391  1.00  0.00    -0.264 NA
ATOM     24  C   UNL     1     -22.405  13.660 -30.333  1.00  0.00     0.020 A 
ATOM     25  C   UNL     1     -23.108  12.645 -29.713  1.00  0.00     0.111 A 
ENDBRANCH   1  20
BRANCH   1  26
ATOM     26  C   UNL     1     -20.055  14.128 -26.362  1.00  0.00     0.248 C 
ATOM     27  O   UNL     1     -19.418  13.140 -26.624  1.00  0.00    -0.272 OA
ATOM     28  N   UNL     1     -20.374  14.492 -24.971  1.00  0.00    -0.351 N 
ATOM     29  H   UNL     1     -20.815  15.216 -24.830  1.00  0.00     0.163 HD
BRANCH  28  30
ATOM     30  C   UNL     1     -19.984  13.694 -23.835  1.00  0.00     0.082 C 
ATOM     31  C   UNL     1     -21.118  13.763 -22.797  1.00  0.00     0.025 C 
ATOM     32  C   UNL     1     -18.714  14.327 -23.273  1.00  0.00     0.025 C 
ATOM     33  C   UNL     1     -20.678  13.243 -21.419  1.00  0.00     0.002 C 
ATOM     34  C   UNL     1     -18.253  13.639 -21.990  1.00  0.00     0.002 C 
ATOM     35  C   UNL     1     -19.329  13.744 -20.948  1.00  0.00     0.000 C 
ENDBRANCH  28  30
ENDBRANCH   1  26
TORSDOF 8

ENDMDL
MODEL 3
REMARK VINA RESULT:    -9.325      1.696      6.467
REMARK INTER + INTRA:         -14.236
REMARK INTER:                 -11.712
REMARK INTRA:                  -2.524
REMARK CONF_INDEPENDENT:        2.386
REMARK UNBOUND:                 2.524
REMARK SMILES CC(C)(C)c1ccc(N(C(=O)c2c[nH]cn2)C(C(=O)NC2CCCCC2)c2cccnc2)cc1
REMARK SMILES IDX 17 1 9 2 10 3 11 4 12 5 16 6 13 7 15 8 14 9 8 10 33 11 7 12
REMARK SMILES IDX 34 13 6 14 5 15 2 16 4 17 3 18 1 19 27 20 32 21 28 22 31 23
REMARK SMILES IDX 29 24 30 25 18 26 19 27 20 28 21 30 26 31 22 32 25 33 23 34
REMARK SMILES IDX 24 35
REMARK H PARENT 20 29
REMARK Flexibility Score: inf
ROOT
ATOM      1  C   UNL     1     -20.533  15.862 -27.543  1.00  0.00     0.212 C 
ENDROOT
BRANCH   1   2
ATOM      2  N   UNL     1     -21.048  17.124 -27.986  1.00  0.00    -0.290 N 
BRANCH   2   3
ATOM      3  C   UNL     1     -22.316  17.169 -28.726  1.00  0.00     0.279 C 
ATOM      4  O   UNL     1     -23.291  17.427 -28.111  1.00  0.00    -0.267 OA
BRANCH   3   5
ATOM      5  C   UNL     1     -22.386  16.888 -30.245  1.00  0.00     0.146 A 
ATOM      6  N   UNL     1     -22.868  15.781 -30.768  1.00  0.00    -0.232 NA
ATOM      7  C   UNL     1     -21.949  17.679 -31.290  1.00  0.00     0.118 A 
ATOM      8  C   UNL     1     -22.753  15.868 -32.108  1.00  0.00     0.197 A 
ATOM      9  N   UNL     1     -22.185  17.029 -32.424  1.00  0.00    -0.350 N 
ENDBRANCH   3   5
ENDBRANCH   2   3
BRANCH   2  10
ATOM     10  C   UNL     1     -20.168  18.302 -27.804  1.00  0.00     0.045 A 
ATOM     11  C   UNL     1     -20.260  19.399 -28.640  1.00  0.00     0.027 A 
ATOM     12  C   UNL     1     -19.225  18.263 -26.772  1.00  0.00     0.027 A 
ATOM     13  C   UNL     1     -19.408  20.499 -28.439  1.00  0.00     0.006 A 
ATOM     14  C   UNL     1     -18.377  19.359 -26.572  1.00  0.00     0.006 A 
ATOM     15  C   UNL     1     -18.466  20.477 -27.411  1.00  0.00    -0.042 A 
BRANCH  15  16
ATOM     16  C   UNL     1     -17.514  21.708 -27.179  1.00  0.00    -0.013 C 
ATOM     17  C   UNL     1     -18.252  22.793 -26.399  1.00  0.00     0.016 C 
ATOM     18  C   UNL     1     -16.229  21.356 -26.399  1.00  0.00     0.016 C 
ATOM     19  C   UNL     1     -17.105  22.243 -28.554  1.00  0.00     0.016 C 
ENDBRANCH  15  16
ENDBRANCH   2  10
ENDBRANCH   1   2
BRANCH   1  20
ATOM     20  C   UNL     1     -21.148  14.611 -28.094  1.00  0.00     0.003 A 
ATOM     21  C   UNL     1     -22.246  14.046 -27.503  1.00  0.00     0.117 A 
ATOM     22  C   UNL     1     -20.568  14.037 -29.169  1.00  0.00     0.009 A 
ATOM     23  N   UNL     1     -22.753  12.885 -27.974  1.00  0.00    -0.264 NA
ATOM     24  C   UNL     1     -21.093  12.868 -29.660  1.00  0.00     0.020 A 
ATOM     25  C   UNL     1     -22.195  12.303 -29.048  1.00  0.00     0.111 A 
ENDBRANCH   1  20
BRANCH   1  26
ATOM     26  C   UNL     1     -20.831  15.726 -26.020  1.00  0.00     0.248 C 
ATOM     27  O   UNL     1     -21.925  15.956 -25.572  1.00  0.00    -0.272 OA
ATOM     28  N   UNL     1     -19.730  15.253 -25.164  1.00  0.00    -0.351 N 
ATOM     29  H   UNL     1     -18.972  15.084 -25.531  1.00  0.00     0.163 HD
BRANCH  28  30
ATOM     30  C   UNL     1     -19.862  15.062 -23.740  1.00  0.00     0.082 C 
ATOM     31  C   UNL     1     -18.498  14.599 -23.198  1.00  0.00     0.025 C 
ATOM     32  C   UNL     1     -20.908  13.968 -23.542  1.00  0.00     0.025 C 
ATOM     33  C   UNL     1     -18.600  14.038 -21.771  1.00  0.00     0.002 C 
ATOM     34  C   UNL     1     -21.063  13.587 -22.072  1.00  0.00     0.002 C 
ATOM     35  C   UNL     1     -19.753  13.084 -21.540  1.00  0.00     0.000 C 
ENDBRANCH  28  30
ENDBRANCH   1  26
TORSDOF 8

ENDMDL
MODEL 4
REMARK VINA RESULT:    -9.163      2.114      7.441
REMARK INTER + INTRA:         -14.196
REMARK INTER:                 -11.549
REMARK INTRA:                  -2.647
REMARK CONF_INDEPENDENT:        2.386
REMARK UNBOUND:                 2.647
REMARK SMILES CC(C)(C)c1ccc(N(C(=O)c2c[nH]cn2)C(C(=O)NC2CCCCC2)c2cccnc2)cc1
REMARK SMILES IDX 17 1 9 2 10 3 11 4 12 5 16 6 13 7 15 8 14 9 8 10 33 11 7 12
REMARK SMILES IDX 34 13 6 14 5 15 2 16 4 17 3 18 1 19 27 20 32 21 28 22 31 23
REMARK SMILES IDX 29 24 30 25 18 26 19 27 20 28 21 30 26 31 22 32 25 33 23 34
REMARK SMILES IDX 24 35
REMARK H PARENT 20 29
REMARK Flexibility Score: inf
ROOT
ATOM      1  C   UNL     1     -20.088  15.271 -27.635  1.00  0.00     0.212 C 
ENDROOT
BRANCH   1   2
ATOM      2  N   UNL     1     -20.245  16.553 -28.256  1.00  0.00    -0.290 N 
BRANCH   2   3
ATOM      3  C   UNL     1     -19.469  17.698 -27.760  1.00  0.00     0.279 C 
ATOM      4  O   UNL     1     -18.556  18.057 -28.417  1.00  0.00    -0.267 OA
BRANCH   3   5
ATOM      5  C   UNL     1     -19.821  18.409 -26.433  1.00  0.00     0.146 A 
ATOM      6  N   UNL     1     -18.999  18.510 -25.411  1.00  0.00    -0.232 NA
ATOM      7  C   UNL     1     -21.008  19.012 -26.064  1.00  0.00     0.118 A 
ATOM      8  C   UNL     1     -19.639  19.168 -24.423  1.00  0.00     0.197 A 
ATOM      9  N   UNL     1     -20.871  19.469 -24.825  1.00  0.00    -0.350 N 
ENDBRANCH   3   5
ENDBRANCH   2   3
BRANCH   2  10
ATOM     10  C   UNL     1     -21.317  16.674 -29.272  1.00  0.00     0.045 A 
ATOM     11  C   UNL     1     -21.248  15.984 -30.467  1.00  0.00     0.027 A 
ATOM     12  C   UNL     1     -22.391  17.524 -28.993  1.00  0.00     0.027 A 
ATOM     13  C   UNL     1     -22.283  16.124 -31.410  1.00  0.00     0.006 A 
ATOM     14  C   UNL     1     -23.421  17.663 -29.932  1.00  0.00     0.006 A 
ATOM     15  C   UNL     1     -23.363  16.964 -31.144  1.00  0.00    -0.042 A 
BRANCH  15  16
ATOM     16  C   UNL     1     -24.526  17.119 -32.193  1.00  0.00    -0.013 C 
ATOM     17  C   UNL     1     -25.689  16.206 -31.815  1.00  0.00     0.016 C 
ATOM     18  C   UNL     1     -25.070  18.559 -32.302  1.00  0.00     0.016 C 
ATOM     19  C   UNL     1     -23.971  16.715 -33.563  1.00  0.00     0.016 C 
ENDBRANCH  15  16
ENDBRANCH   2  10
ENDBRANCH   1   2
BRANCH   1  20
ATOM     20  C   UNL     1     -21.022  14.169 -28.037  1.00  0.00     0.003 A 
ATOM     21  C   UNL     1     -20.659  13.248 -28.981  1.00  0.00     0.117 A 
ATOM     22  C   UNL     1     -22.245  14.132 -27.467  1.00  0.00     0.009 A 
ATOM     23  N   UNL     1     -21.534  12.296 -29.378  1.00  0.00    -0.264 NA
ATOM     24  C   UNL     1     -23.128  13.155 -27.854  1.00  0.00     0.020 A 
ATOM     25  C   UNL     1     -22.752  12.237 -28.816  1.00  0.00     0.111 A 
ENDBRANCH   1  20
BRANCH   1  26
ATOM     26  C   UNL     1     -20.406  15.426 -26.118  1.00  0.00     0.248 C 
ATOM     27  O   UNL     1     -21.400  15.990 -25.739  1.00  0.00    -0.272 OA
ATOM     28  N   UNL     1     -19.461  14.808 -25.172  1.00  0.00    -0.351 N 
ATOM     29  H   UNL     1     -18.774  14.401 -25.489  1.00  0.00     0.163 HD
BRANCH  28  30
ATOM     30  C   UNL     1     -19.632  14.854 -23.740  1.00  0.00     0.082 C 
ATOM     31  C   UNL     1     -18.324  14.367 -23.093  1.00  0.00     0.025 C 
ATOM     32  C   UNL     1     -20.774  13.898 -23.407  1.00  0.00     0.025 C 
ATOM     33  C   UNL     1     -18.498  14.047 -21.600  1.00  0.00     0.002 C 
ATOM     34  C   UNL     1     -20.987  13.767 -21.900  1.00  0.00     0.002 C 
ATOM     35  C   UNL     1     -19.735  13.242 -21.259  1.00  0.00     0.000 C 
ENDBRANCH  28  30
ENDBRANCH   1  26
TORSDOF 8

ENDMDL
MODEL 5
REMARK VINA RESULT:    -9.057      2.281      6.524
REMARK INTER + INTRA:         -14.724
REMARK INTER:                 -11.443
REMARK INTRA:                  -3.281
REMARK CONF_INDEPENDENT:        2.386
REMARK UNBOUND:                 3.281
REMARK SMILES CC(C)(C)c1ccc(N(C(=O)c2c[nH]cn2)C(C(=O)NC2CCCCC2)c2cccnc2)cc1
REMARK SMILES IDX 17 1 9 2 10 3 11 4 12 5 16 6 13 7 15 8 14 9 8 10 33 11 7 12
REMARK SMILES IDX 34 13 6 14 5 15 2 16 4 17 3 18 1 19 27 20 32 21 28 22 31 23
REMARK SMILES IDX 29 24 30 25 18 26 19 27 20 28 21 30 26 31 22 32 25 33 23 34
REMARK SMILES IDX 24 35
REMARK H PARENT 20 29
REMARK Flexibility Score: inf
ROOT
ATOM      1  C   UNL     1     -20.473  15.161 -27.471  1.00  0.00     0.212 C 
ENDROOT
BRANCH   1   2
ATOM      2  N   UNL     1     -21.010  16.321 -26.823  1.00  0.00    -0.290 N 
BRANCH   2   3
ATOM      3  C   UNL     1     -22.389  16.295 -26.316  1.00  0.00     0.279 C 
ATOM      4  O   UNL     1     -22.702  15.371 -25.650  1.00  0.00    -0.267 OA
BRANCH   3   5
ATOM      5  C   UNL     1     -23.399  17.421 -26.638  1.00  0.00     0.146 A 
ATOM      6  N   UNL     1     -23.426  18.085 -27.773  1.00  0.00    -0.232 NA
ATOM      7  C   UNL     1     -24.390  17.947 -25.831  1.00  0.00     0.118 A 
ATOM      8  C   UNL     1     -24.412  19.001 -27.698  1.00  0.00     0.197 A 
ATOM      9  N   UNL     1     -24.998  18.916 -26.506  1.00  0.00    -0.350 N 
ENDBRANCH   3   5
ENDBRANCH   2   3
BRANCH   2  10
ATOM     10  C   UNL     1     -20.175  17.545 -26.851  1.00  0.00     0.045 A 
ATOM     11  C   UNL     1     -19.464  17.898 -27.982  1.00  0.00     0.027 A 
ATOM     12  C   UNL     1     -20.111  18.321 -25.691  1.00  0.00     0.027 A 
ATOM     13  C   UNL     1     -18.680  19.065 -27.974  1.00  0.00     0.006 A 
ATOM     14  C   UNL     1     -19.330  19.484 -25.682  1.00  0.00     0.006 A 
ATOM     15  C   UNL     1     -18.610  19.853 -26.825  1.00  0.00    -0.042 A 
BRANCH  15  16
ATOM     16  C   UNL     1     -17.738  21.163 -26.812  1.00  0.00    -0.013 C 
ATOM     17  C   UNL     1     -17.852  21.874 -28.158  1.00  0.00     0.016 C 
ATOM     18  C   UNL     1     -18.146  22.165 -25.711  1.00  0.00     0.016 C 
ATOM     19  C   UNL     1     -16.284  20.749 -26.564  1.00  0.00     0.016 C 
ENDBRANCH  15  16
ENDBRANCH   2  10
ENDBRANCH   1   2
BRANCH   1  20
ATOM     20  C   UNL     1     -21.401  14.311 -28.287  1.00  0.00     0.003 A 
ATOM     21  C   UNL     1     -22.069  13.257 -27.725  1.00  0.00     0.117 A 
ATOM     22  C   UNL     1     -21.530  14.593 -29.601  1.00  0.00     0.009 A 
ATOM     23  N   UNL     1     -22.854  12.463 -28.487  1.00  0.00    -0.264 NA
ATOM     24  C   UNL     1     -22.342  13.799 -30.372  1.00  0.00     0.020 A 
ATOM     25  C   UNL     1     -23.003  12.732 -29.794  1.00  0.00     0.111 A 
ENDBRANCH   1  20
BRANCH   1  26
ATOM     26  C   UNL     1     -20.007  14.164 -26.369  1.00  0.00     0.248 C 
ATOM     27  O   UNL     1     -19.416  13.152 -26.648  1.00  0.00    -0.272 OA
ATOM     28  N   UNL     1     -20.275  14.540 -24.971  1.00  0.00    -0.351 N 
ATOM     29  H   UNL     1     -20.684  15.281 -24.819  1.00  0.00     0.163 HD
BRANCH  28  30
ATOM     30  C   UNL     1     -19.888  13.727 -23.845  1.00  0.00     0.082 C 
ATOM     31  C   UNL     1     -21.023  13.785 -22.807  1.00  0.00     0.025 C 
ATOM     32  C   UNL     1     -18.617  14.350 -23.273  1.00  0.00     0.025 C 
ATOM     33  C   UNL     1     -20.585  13.246 -21.436  1.00  0.00     0.002 C 
ATOM     34  C   UNL     1     -18.159  13.645 -21.998  1.00  0.00     0.002 C 
ATOM     35  C   UNL     1     -19.236  13.738 -20.957  1.00  0.00     0.000 C 
ENDBRANCH  28  30
ENDBRANCH   1  26
TORSDOF 8

ENDMDL
MODEL 6
REMARK VINA RESULT:    -8.981      2.387      6.862
REMARK INTER + INTRA:         -14.740
REMARK INTER:                 -11.368
REMARK INTRA:                  -3.373
REMARK CONF_INDEPENDENT:        2.386
REMARK UNBOUND:                 3.373
REMARK SMILES CC(C)(C)c1ccc(N(C(=O)c2c[nH]cn2)C(C(=O)NC2CCCCC2)c2cccnc2)cc1
REMARK SMILES IDX 17 1 9 2 10 3 11 4 12 5 16 6 13 7 15 8 14 9 8 10 33 11 7 12
REMARK SMILES IDX 34 13 6 14 5 15 2 16 4 17 3 18 1 19 27 20 32 21 28 22 31 23
REMARK SMILES IDX 29 24 30 25 18 26 19 27 20 28 21 30 26 31 22 32 25 33 23 34
REMARK SMILES IDX 24 35
REMARK H PARENT 20 29
REMARK Flexibility Score: inf
ROOT
ATOM      1  C   UNL     1     -20.285  15.676 -26.834  1.00  0.00     0.212 C 
ENDROOT
BRANCH   1   2
ATOM      2  N   UNL     1     -20.887  16.957 -26.608  1.00  0.00    -0.290 N 
BRANCH   2   3
ATOM      3  C   UNL     1     -22.345  17.055 -26.454  1.00  0.00     0.279 C 
ATOM      4  O   UNL     1     -23.008  16.730 -27.376  1.00  0.00    -0.267 OA
BRANCH   3   5
ATOM      5  C   UNL     1     -22.996  17.565 -25.148  1.00  0.00     0.146 A 
ATOM      6  N   UNL     1     -22.721  17.088 -23.953  1.00  0.00    -0.232 NA
ATOM      7  C   UNL     1     -23.964  18.538 -24.988  1.00  0.00     0.118 A 
ATOM      8  C   UNL     1     -23.483  17.745 -23.055  1.00  0.00     0.197 A 
ATOM      9  N   UNL     1     -24.246  18.629 -23.694  1.00  0.00    -0.350 N 
ENDBRANCH   3   5
ENDBRANCH   2   3
BRANCH   2  10
ATOM     10  C   UNL     1     -19.996  18.137 -26.706  1.00  0.00     0.045 A 
ATOM     11  C   UNL     1     -19.410  18.491 -27.906  1.00  0.00     0.027 A 
ATOM     12  C   UNL     1     -19.749  18.869 -25.541  1.00  0.00     0.027 A 
ATOM     13  C   UNL     1     -18.568  19.616 -27.962  1.00  0.00     0.006 A 
ATOM     14  C   UNL     1     -18.910  19.990 -25.598  1.00  0.00     0.006 A 
ATOM     15  C   UNL     1     -18.316  20.360 -26.810  1.00  0.00    -0.042 A 
BRANCH  15  16
ATOM     16  C   UNL     1     -17.379  21.623 -26.869  1.00  0.00    -0.013 C 
ATOM     17  C   UNL     1     -16.048  21.311 -26.190  1.00  0.00     0.016 C 
ATOM     18  C   UNL     1     -17.077  22.100 -28.305  1.00  0.00     0.016 C 
ATOM     19  C   UNL     1     -18.088  22.761 -26.128  1.00  0.00     0.016 C 
ENDBRANCH  15  16
ENDBRANCH   2  10
ENDBRANCH   1   2
BRANCH   1  20
ATOM     20  C   UNL     1     -21.066  14.650 -27.600  1.00  0.00     0.003 A 
ATOM     21  C   UNL     1     -22.110  13.981 -27.020  1.00  0.00     0.117 A 
ATOM     22  C   UNL     1     -20.688  14.379 -28.867  1.00  0.00     0.009 A 
ATOM     23  N   UNL     1     -22.765  13.016 -27.703  1.00  0.00    -0.264 NA
ATOM     24  C   UNL     1     -21.365  13.413 -29.569  1.00  0.00     0.020 A 
ATOM     25  C   UNL     1     -22.410  12.738 -28.968  1.00  0.00     0.111 A 
ENDBRANCH   1  20
BRANCH   1  26
ATOM     26  C   UNL     1     -20.100  14.977 -25.455  1.00  0.00     0.248 C 
ATOM     27  O   UNL     1     -19.722  13.837 -25.374  1.00  0.00    -0.272 OA
ATOM     28  N   UNL     1     -20.359  15.790 -24.255  1.00  0.00    -0.351 N 
ATOM     29  H   UNL     1     -20.610  16.605 -24.360  1.00  0.00     0.163 HD
BRANCH  28  30
ATOM     30  C   UNL     1     -20.214  15.286 -22.911  1.00  0.00     0.082 C 
ATOM     31  C   UNL     1     -18.787  14.728 -22.769  1.00  0.00     0.025 C 
ATOM     32  C   UNL     1     -21.238  14.165 -22.753  1.00  0.00     0.025 C 
ATOM     33  C   UNL     1     -18.625  13.862 -21.509  1.00  0.00     0.002 C 
ATOM     34  C   UNL     1     -21.113  13.465 -21.402  1.00  0.00     0.002 C 
ATOM     35  C   UNL     1     -19.742  12.869 -21.268  1.00  0.00     0.000 C 
ENDBRANCH  28  30
ENDBRANCH   1  26
TORSDOF 8

ENDMDL
MODEL 7
REMARK VINA RESULT:    -8.935      2.755      6.764
REMARK INTER + INTRA:         -14.607
REMARK INTER:                 -11.321
REMARK INTRA:                  -3.285
REMARK CONF_INDEPENDENT:        2.386
REMARK UNBOUND:                 3.285
REMARK SMILES CC(C)(C)c1ccc(N(C(=O)c2c[nH]cn2)C(C(=O)NC2CCCCC2)c2cccnc2)cc1
REMARK SMILES IDX 17 1 9 2 10 3 11 4 12 5 16 6 13 7 15 8 14 9 8 10 33 11 7 12
REMARK SMILES IDX 34 13 6 14 5 15 2 16 4 17 3 18 1 19 27 20 32 21 28 22 31 23
REMARK SMILES IDX 29 24 30 25 18 26 19 27 20 28 21 30 26 31 22 32 25 33 23 34
REMARK SMILES IDX 24 35
REMARK H PARENT 20 29
REMARK Flexibility Score: inf
ROOT
ATOM      1  C   UNL     1     -19.640  20.388 -27.173  1.00  0.00     0.212 C 
ENDROOT
BRANCH   1   2
ATOM      2  N   UNL     1     -19.844  19.828 -28.476  1.00  0.00    -0.290 N 
BRANCH   2   3
ATOM      3  C   UNL     1     -19.990  20.720 -29.633  1.00  0.00     0.279 C 
ATOM      4  O   UNL     1     -19.769  21.868 -29.461  1.00  0.00    -0.267 OA
BRANCH   3   5
ATOM      5  C   UNL     1     -20.417  20.193 -31.022  1.00  0.00     0.146 A 
ATOM      6  N   UNL     1     -21.168  19.129 -31.207  1.00  0.00    -0.232 NA
ATOM      7  C   UNL     1     -20.086  20.683 -32.271  1.00  0.00     0.118 A 
ATOM      8  C   UNL     1     -21.321  18.951 -32.535  1.00  0.00     0.197 A 
ATOM      9  N   UNL     1     -20.653  19.902 -33.183  1.00  0.00    -0.350 N 
ENDBRANCH   3   5
ENDBRANCH   2   3
BRANCH   2  10
ATOM     10  C   UNL     1     -20.058  18.363 -28.543  1.00  0.00     0.045 A 
ATOM     11  C   UNL     1     -19.004  17.496 -28.761  1.00  0.00     0.027 A 
ATOM     12  C   UNL     1     -21.364  17.884 -28.403  1.00  0.00     0.027 A 
ATOM     13  C   UNL     1     -19.243  16.112 -28.822  1.00  0.00     0.006 A 
ATOM     14  C   UNL     1     -21.602  16.505 -28.463  1.00  0.00     0.006 A 
ATOM     15  C   UNL     1     -20.540  15.619 -28.677  1.00  0.00    -0.042 A 
BRANCH  15  16
ATOM     16  C   UNL     1     -20.812  14.071 -28.739  1.00  0.00    -0.013 C 
ATOM     17  C   UNL     1     -21.530  13.621 -27.470  1.00  0.00     0.016 C 
ATOM     18  C   UNL     1     -21.673  13.643 -29.947  1.00  0.00     0.016 C 
ATOM     19  C   UNL     1     -19.456  13.366 -28.848  1.00  0.00     0.016 C 
ENDBRANCH  15  16
ENDBRANCH   2  10
ENDBRANCH   1   2
BRANCH   1  20
ATOM     20  C   UNL     1     -18.432  21.250 -26.952  1.00  0.00     0.003 A 
ATOM     21  C   UNL     1     -17.297  21.075 -27.695  1.00  0.00     0.117 A 
ATOM     22  C   UNL     1     -18.485  22.180 -25.975  1.00  0.00     0.009 A 
ATOM     23  N   UNL     1     -16.196  21.819 -27.444  1.00  0.00    -0.264 NA
ATOM     24  C   UNL     1     -17.375  22.948 -25.731  1.00  0.00     0.020 A 
ATOM     25  C   UNL     1     -16.231  22.755 -26.482  1.00  0.00     0.111 A 
ENDBRANCH   1  20
BRANCH   1  26
ATOM     26  C   UNL     1     -19.388  19.218 -26.176  1.00  0.00     0.248 C 
ATOM     27  O   UNL     1     -18.273  18.899 -25.851  1.00  0.00    -0.272 OA
ATOM     28  N   UNL     1     -20.575  18.554 -25.612  1.00  0.00    -0.351 N 
ATOM     29  H   UNL     1     -21.351  18.827 -25.860  1.00  0.00     0.163 HD
BRANCH  28  30
ATOM     30  C   UNL     1     -20.499  17.468 -24.666  1.00  0.00     0.082 C 
ATOM     31  C   UNL     1     -19.447  16.468 -25.178  1.00  0.00     0.025 C 
ATOM     32  C   UNL     1     -21.879  16.815 -24.640  1.00  0.00     0.025 C 
ATOM     33  C   UNL     1     -19.522  15.119 -24.446  1.00  0.00     0.002 C 
ATOM     34  C   UNL     1     -21.905  15.571 -23.754  1.00  0.00     0.002 C 
ATOM     35  C   UNL     1     -20.920  14.564 -24.271  1.00  0.00     0.000 C 
ENDBRANCH  28  30
ENDBRANCH   1  26
TORSDOF 8

ENDMDL
MODEL 8
REMARK VINA RESULT:    -8.347      2.456      6.316
REMARK INTER + INTRA:         -14.039
REMARK INTER:                 -10.733
REMARK INTRA:                  -3.306
REMARK CONF_INDEPENDENT:        2.386
REMARK UNBOUND:                 3.306
REMARK SMILES CC(C)(C)c1ccc(N(C(=O)c2c[nH]cn2)C(C(=O)NC2CCCCC2)c2cccnc2)cc1
REMARK SMILES IDX 17 1 9 2 10 3 11 4 12 5 16 6 13 7 15 8 14 9 8 10 33 11 7 12
REMARK SMILES IDX 34 13 6 14 5 15 2 16 4 17 3 18 1 19 27 20 32 21 28 22 31 23
REMARK SMILES IDX 29 24 30 25 18 26 19 27 20 28 21 30 26 31 22 32 25 33 23 34
REMARK SMILES IDX 24 35
REMARK H PARENT 20 29
REMARK Flexibility Score: inf
ROOT
ATOM      1  C   UNL     1     -22.177  16.194 -26.046  1.00  0.00     0.212 C 
ENDROOT
BRANCH   1   2
ATOM      2  N   UNL     1     -20.945  16.107 -26.773  1.00  0.00    -0.290 N 
BRANCH   2   3
ATOM      3  C   UNL     1     -20.416  14.789 -27.145  1.00  0.00     0.279 C 
ATOM      4  O   UNL     1     -19.378  14.472 -26.677  1.00  0.00    -0.267 OA
BRANCH   3   5
ATOM      5  C   UNL     1     -21.171  13.848 -28.112  1.00  0.00     0.146 A 
ATOM      6  N   UNL     1     -22.419  13.467 -27.944  1.00  0.00    -0.232 NA
ATOM      7  C   UNL     1     -20.703  13.227 -29.254  1.00  0.00     0.118 A 
ATOM      8  C   UNL     1     -22.742  12.637 -28.956  1.00  0.00     0.197 A 
ATOM      9  N   UNL     1     -21.687  12.488 -29.754  1.00  0.00    -0.350 N 
ENDBRANCH   3   5
ENDBRANCH   2   3
BRANCH   2  10
ATOM     10  C   UNL     1     -20.195  17.371 -26.964  1.00  0.00     0.045 A 
ATOM     11  C   UNL     1     -20.091  17.958 -28.211  1.00  0.00     0.027 A 
ATOM     12  C   UNL     1     -19.577  17.941 -25.848  1.00  0.00     0.027 A 
ATOM     13  C   UNL     1     -19.369  19.156 -28.357  1.00  0.00     0.006 A 
ATOM     14  C   UNL     1     -18.858  19.135 -25.993  1.00  0.00     0.006 A 
ATOM     15  C   UNL     1     -18.752  19.740 -27.251  1.00  0.00    -0.042 A 
BRANCH  15  16
ATOM     16  C   UNL     1     -17.948  21.083 -27.408  1.00  0.00    -0.013 C 
ATOM     17  C   UNL     1     -18.498  21.881 -28.587  1.00  0.00     0.016 C 
ATOM     18  C   UNL     1     -18.005  21.986 -26.157  1.00  0.00     0.016 C 
ATOM     19  C   UNL     1     -16.482  20.719 -27.665  1.00  0.00     0.016 C 
ENDBRANCH  15  16
ENDBRANCH   2  10
ENDBRANCH   1   2
BRANCH   1  20
ATOM     20  C   UNL     1     -22.850  17.531 -25.947  1.00  0.00     0.003 A 
ATOM     21  C   UNL     1     -22.652  18.341 -24.862  1.00  0.00     0.117 A 
ATOM     22  C   UNL     1     -23.685  17.898 -26.943  1.00  0.00     0.009 A 
ATOM     23  N   UNL     1     -23.313  19.516 -24.759  1.00  0.00    -0.264 NA
ATOM     24  C   UNL     1     -24.342  19.099 -26.848  1.00  0.00     0.020 A 
ATOM     25  C   UNL     1     -24.141  19.903 -25.743  1.00  0.00     0.111 A 
ENDBRANCH   1  20
BRANCH   1  26
ATOM     26  C   UNL     1     -21.881  15.871 -24.552  1.00  0.00     0.248 C 
ATOM     27  O   UNL     1     -22.753  15.887 -23.721  1.00  0.00    -0.272 OA
ATOM     28  N   UNL     1     -20.498  15.495 -24.211  1.00  0.00    -0.351 N 
ATOM     29  H   UNL     1     -19.913  15.480 -24.840  1.00  0.00     0.163 HD
BRANCH  28  30
ATOM     30  C   UNL     1     -20.078  15.153 -22.874  1.00  0.00     0.082 C 
ATOM     31  C   UNL     1     -18.689  14.497 -22.970  1.00  0.00     0.025 C 
ATOM     32  C   UNL     1     -21.099  14.152 -22.340  1.00  0.00     0.025 C 
ATOM     33  C   UNL     1     -18.292  13.786 -21.667  1.00  0.00     0.002 C 
ATOM     34  C   UNL     1     -20.708  13.619 -20.963  1.00  0.00     0.002 C 
ATOM     35  C   UNL     1     -19.377  12.930 -21.049  1.00  0.00     0.000 C 
ENDBRANCH  28  30
ENDBRANCH   1  26
TORSDOF 8

ENDMDL
MODEL 9
REMARK VINA RESULT:    -8.329      2.906      8.152
REMARK INTER + INTRA:         -14.064
REMARK INTER:                 -10.716
REMARK INTRA:                  -3.348
REMARK CONF_INDEPENDENT:        2.386
REMARK UNBOUND:                 3.348
REMARK SMILES CC(C)(C)c1ccc(N(C(=O)c2c[nH]cn2)C(C(=O)NC2CCCCC2)c2cccnc2)cc1
REMARK SMILES IDX 17 1 9 2 10 3 11 4 12 5 16 6 13 7 15 8 14 9 8 10 33 11 7 12
REMARK SMILES IDX 34 13 6 14 5 15 2 16 4 17 3 18 1 19 27 20 32 21 28 22 31 23
REMARK SMILES IDX 29 24 30 25 18 26 19 27 20 28 21 30 26 31 22 32 25 33 23 34
REMARK SMILES IDX 24 35
REMARK H PARENT 20 29
REMARK Flexibility Score: inf
ROOT
ATOM      1  C   UNL     1     -21.516  14.783 -24.030  1.00  0.00     0.212 C 
ENDROOT
BRANCH   1   2
ATOM      2  N   UNL     1     -21.696  16.191 -24.226  1.00  0.00    -0.290 N 
BRANCH   2   3
ATOM      3  C   UNL     1     -22.104  17.034 -23.095  1.00  0.00     0.279 C 
ATOM      4  O   UNL     1     -23.240  16.991 -22.771  1.00  0.00    -0.267 OA
BRANCH   3   5
ATOM      5  C   UNL     1     -21.101  17.947 -22.352  1.00  0.00     0.146 A 
ATOM      6  N   UNL     1     -20.627  19.072 -22.841  1.00  0.00    -0.232 NA
ATOM      7  C   UNL     1     -20.510  17.755 -21.117  1.00  0.00     0.118 A 
ATOM      8  C   UNL     1     -19.767  19.590 -21.940  1.00  0.00     0.197 A 
ATOM      9  N   UNL     1     -19.695  18.778 -20.888  1.00  0.00    -0.350 N 
ENDBRANCH   3   5
ENDBRANCH   2   3
BRANCH   2  10
ATOM     10  C   UNL     1     -21.611  16.684 -25.621  1.00  0.00     0.045 A 
ATOM     11  C   UNL     1     -20.408  17.099 -26.160  1.00  0.00     0.027 A 
ATOM     12  C   UNL     1     -22.790  16.738 -26.370  1.00  0.00     0.027 A 
ATOM     13  C   UNL     1     -20.364  17.564 -27.486  1.00  0.00     0.006 A 
ATOM     14  C   UNL     1     -22.746  17.201 -27.691  1.00  0.00     0.006 A 
ATOM     15  C   UNL     1     -21.531  17.618 -28.248  1.00  0.00    -0.042 A 
BRANCH  15  16
ATOM     16  C   UNL     1     -21.486  18.132 -29.734  1.00  0.00    -0.013 C 
ATOM     17  C   UNL     1     -21.636  16.954 -30.693  1.00  0.00     0.016 C 
ATOM     18  C   UNL     1     -22.591  19.157 -30.066  1.00  0.00     0.016 C 
ATOM     19  C   UNL     1     -20.128  18.808 -29.950  1.00  0.00     0.016 C 
ENDBRANCH  15  16
ENDBRANCH   2  10
ENDBRANCH   1   2
BRANCH   1  20
ATOM     20  C   UNL     1     -20.449  14.329 -23.079  1.00  0.00     0.003 A 
ATOM     21  C   UNL     1     -20.632  13.228 -22.288  1.00  0.00     0.117 A 
ATOM     22  C   UNL     1     -19.315  15.058 -23.001  1.00  0.00     0.009 A 
ATOM     23  N   UNL     1     -19.686  12.866 -21.392  1.00  0.00    -0.264 NA
ATOM     24  C   UNL     1     -18.346  14.681 -22.106  1.00  0.00     0.020 A 
ATOM     25  C   UNL     1     -18.548  13.573 -21.305  1.00  0.00     0.111 A 
ENDBRANCH   1  20
BRANCH   1  26
ATOM     26  C   UNL     1     -21.035  14.164 -25.375  1.00  0.00     0.248 C 
ATOM     27  O   UNL     1     -19.871  13.933 -25.579  1.00  0.00    -0.272 OA
ATOM     28  N   UNL     1     -22.073  13.828 -26.365  1.00  0.00    -0.351 N 
ATOM     29  H   UNL     1     -22.892  13.995 -26.168  1.00  0.00     0.163 HD
BRANCH  28  30
ATOM     30  C   UNL     1     -21.781  13.235 -27.647  1.00  0.00     0.082 C 
ATOM     31  C   UNL     1     -20.953  14.247 -28.458  1.00  0.00     0.025 C 
ATOM     32  C   UNL     1     -23.124  12.984 -28.327  1.00  0.00     0.025 C 
ATOM     33  C   UNL     1     -20.876  13.875 -29.947  1.00  0.00     0.002 C 
ATOM     34  C   UNL     1     -22.953  12.456 -29.750  1.00  0.00     0.002 C 
ATOM     35  C   UNL     1     -22.192  13.457 -30.570  1.00  0.00     0.000 C 
ENDBRANCH  28  30
ENDBRANCH   1  26
TORSDOF 8

ENDMDL
