MODEL 1
REMARK VINA RESULT:    -9.295      0.000      0.000
REMARK INTER + INTRA:         -15.025
REMARK INTER:                 -11.681
REMARK INTRA:                  -3.343
REMARK CONF_INDEPENDENT:        2.386
REMARK UNBOUND:                 3.343
REMARK SMILES CC(C)(C)c1ccc(N(C(=O)c2c[nH]cn2)C(C(=O)NC2CCCCC2)c2cccnc2)cc1
REMARK SMILES IDX 17 1 9 2 10 3 11 4 12 5 16 6 13 7 15 8 14 9 8 10 33 11 7 12
REMARK SMILES IDX 34 13 6 14 5 15 2 16 4 17 3 18 1 19 27 20 32 21 28 22 31 23
REMARK SMILES IDX 29 24 30 25 18 26 19 27 20 28 21 30 26 31 22 32 25 33 23 34
REMARK SMILES IDX 24 35
REMARK H PARENT 20 29
REMARK Flexibility Score: inf
ROOT
ATOM      1  C   UNL     1     -20.531  15.234 -27.441  1.00  0.00     0.212 C 
ENDROOT
BRANCH   1   2
ATOM      2  N   UNL     1     -21.067  16.397 -26.798  1.00  0.00    -0.290 N 
BRANCH   2   3
ATOM      3  C   UNL     1     -22.431  16.360 -26.255  1.00  0.00     0.279 C 
ATOM      4  O   UNL     1     -23.275  15.902 -26.944  1.00  0.00    -0.267 OA
BRANCH   3   5
ATOM      5  C   UNL     1     -22.764  16.899 -24.845  1.00  0.00     0.146 A 
ATOM      6  N   UNL     1     -22.579  16.220 -23.733  1.00  0.00    -0.232 NA
ATOM      7  C   UNL     1     -23.323  18.113 -24.494  1.00  0.00     0.118 A 
ATOM      8  C   UNL     1     -22.996  16.982 -22.703  1.00  0.00     0.197 A 
ATOM      9  N   UNL     1     -23.456  18.139 -23.173  1.00  0.00    -0.350 N 
ENDBRANCH   3   5
ENDBRANCH   2   3
BRANCH   2  10
ATOM     10  C   UNL     1     -20.250  17.632 -26.868  1.00  0.00     0.045 A 
ATOM     11  C   UNL     1     -19.941  18.215 -28.082  1.00  0.00     0.027 A 
ATOM     12  C   UNL     1     -19.783  18.176 -25.669  1.00  0.00     0.027 A 
ATOM     13  C   UNL     1     -19.162  19.386 -28.111  1.00  0.00     0.006 A 
ATOM     14  C   UNL     1     -19.007  19.342 -25.698  1.00  0.00     0.006 A 
ATOM     15  C   UNL     1     -18.693  19.945 -26.923  1.00  0.00    -0.042 A 
BRANCH  15  16
ATOM     16  C   UNL     1     -17.825  21.257 -26.950  1.00  0.00    -0.013 C 
ATOM     17  C   UNL     1     -16.377  20.926 -26.602  1.00  0.00     0.016 C 
ATOM     18  C   UNL     1     -17.832  21.972 -28.318  1.00  0.00     0.016 C 
ATOM     19  C   UNL     1     -18.406  22.218 -25.908  1.00  0.00     0.016 C 
ENDBRANCH  15  16
ENDBRANCH   2  10
ENDBRANCH   1   2
BRANCH   1  20
ATOM     20  C   UNL     1     -21.461  14.375 -28.245  1.00  0.00     0.003 A 
ATOM     21  C   UNL     1     -22.060  13.276 -27.691  1.00  0.00     0.117 A 
ATOM     22  C   UNL     1     -21.663  14.695 -29.540  1.00  0.00     0.009 A 
ATOM     23  N   UNL     1     -22.848  12.476 -28.444  1.00  0.00    -0.264 NA
ATOM     24  C   UNL     1     -22.478  13.895 -30.301  1.00  0.00     0.020 A 
ATOM     25  C   UNL     1     -23.069  12.783 -29.733  1.00  0.00     0.111 A 
ENDBRANCH   1  20
BRANCH   1  26
ATOM     26  C   UNL     1     -20.052  14.247 -26.336  1.00  0.00     0.248 C 
ATOM     27  O   UNL     1     -19.382  13.282 -26.603  1.00  0.00    -0.272 OA
ATOM     28  N   UNL     1     -20.414  14.574 -24.946  1.00  0.00    -0.351 N 
ATOM     29  H   UNL     1     -20.878  15.282 -24.802  1.00  0.00     0.163 HD
BRANCH  28  30
ATOM     30  C   UNL     1     -20.027  13.764 -23.817  1.00  0.00     0.082 C 
ATOM     31  C   UNL     1     -21.130  13.885 -22.751  1.00  0.00     0.025 C 
ATOM     32  C   UNL     1     -18.718  14.346 -23.291  1.00  0.00     0.025 C 
ATOM     33  C   UNL     1     -20.677  13.351 -21.383  1.00  0.00     0.002 C 
ATOM     34  C   UNL     1     -18.253  13.644 -22.017  1.00  0.00     0.002 C 
ATOM     35  C   UNL     1     -19.296  13.797 -20.948  1.00  0.00     0.000 C 
ENDBRANCH  28  30
ENDBRANCH   1  26
TORSDOF 8

ENDMDL
MODEL 2
REMARK VINA RESULT:    -9.282      1.913      3.470
REMARK INTER + INTRA:         -14.235
REMARK INTER:                 -11.668
REMARK INTRA:                  -2.567
REMARK CONF_INDEPENDENT:        2.386
REMARK UNBOUND:                 2.567
REMARK SMILES CC(C)(C)c1ccc(N(C(=O)c2c[nH]cn2)C(C(=O)NC2CCCCC2)c2cccnc2)cc1
REMARK SMILES IDX 17 1 9 2 10 3 11 4 12 5 16 6 13 7 15 8 14 9 8 10 33 11 7 12
REMARK SMILES IDX 34 13 6 14 5 15 2 16 4 17 3 18 1 19 27 20 32 21 28 22 31 23
REMARK SMILES IDX 29 24 30 25 18 26 19 27 20 28 21 30 26 31 22 32 25 33 23 34
REMARK SMILES IDX 24 35
REMARK H PARENT 20 29
REMARK Flexibility Score: inf
ROOT
ATOM      1  C   UNL     1     -20.379  15.970 -27.333  1.00  0.00     0.212 C 
ENDROOT
BRANCH   1   2
ATOM      2  N   UNL     1     -20.852  17.255 -27.756  1.00  0.00    -0.290 N 
BRANCH   2   3
ATOM      3  C   UNL     1     -22.116  17.354 -28.497  1.00  0.00     0.279 C 
ATOM      4  O   UNL     1     -23.065  17.723 -27.898  1.00  0.00    -0.267 OA
BRANCH   3   5
ATOM      5  C   UNL     1     -22.216  16.989 -29.996  1.00  0.00     0.146 A 
ATOM      6  N   UNL     1     -22.708  15.856 -30.448  1.00  0.00    -0.232 NA
ATOM      7  C   UNL     1     -21.798  17.721 -31.092  1.00  0.00     0.118 A 
ATOM      8  C   UNL     1     -22.618  15.869 -31.793  1.00  0.00     0.197 A 
ATOM      9  N   UNL     1     -22.057  17.010 -32.183  1.00  0.00    -0.350 N 
ENDBRANCH   3   5
ENDBRANCH   2   3
BRANCH   2  10
ATOM     10  C   UNL     1     -19.934  18.401 -27.553  1.00  0.00     0.045 A 
ATOM     11  C   UNL     1     -19.176  18.513 -26.403  1.00  0.00     0.027 A 
ATOM     12  C   UNL     1     -19.875  19.378 -28.551  1.00  0.00     0.027 A 
ATOM     13  C   UNL     1     -18.318  19.615 -26.241  1.00  0.00     0.006 A 
ATOM     14  C   UNL     1     -19.020  20.476 -28.390  1.00  0.00     0.006 A 
ATOM     15  C   UNL     1     -18.243  20.595 -27.230  1.00  0.00    -0.042 A 
BRANCH  15  16
ATOM     16  C   UNL     1     -17.280  21.827 -27.057  1.00  0.00    -0.013 C 
ATOM     17  C   UNL     1     -18.031  22.982 -26.400  1.00  0.00     0.016 C 
ATOM     18  C   UNL     1     -16.036  21.522 -26.197  1.00  0.00     0.016 C 
ATOM     19  C   UNL     1     -16.804  22.243 -28.453  1.00  0.00     0.016 C 
ENDBRANCH  15  16
ENDBRANCH   2  10
ENDBRANCH   1   2
BRANCH   1  20
ATOM     20  C   UNL     1     -21.057  14.749 -27.880  1.00  0.00     0.003 A 
ATOM     21  C   UNL     1     -22.223  14.286 -27.334  1.00  0.00     0.117 A 
ATOM     22  C   UNL     1     -20.465  14.098 -28.904  1.00  0.00     0.009 A 
ATOM     23  N   UNL     1     -22.790  13.150 -27.798  1.00  0.00    -0.264 NA
ATOM     24  C   UNL     1     -21.049  12.955 -29.389  1.00  0.00     0.020 A 
ATOM     25  C   UNL     1     -22.222  12.493 -28.822  1.00  0.00     0.111 A 
ENDBRANCH   1  20
BRANCH   1  26
ATOM     26  C   UNL     1     -20.651  15.833 -25.806  1.00  0.00     0.248 C 
ATOM     27  O   UNL     1     -21.687  16.203 -25.316  1.00  0.00    -0.272 OA
ATOM     28  N   UNL     1     -19.605  15.184 -24.997  1.00  0.00    -0.351 N 
ATOM     29  H   UNL     1     -18.889  14.919 -25.393  1.00  0.00     0.163 HD
BRANCH  28  30
ATOM     30  C   UNL     1     -19.722  14.972 -23.575  1.00  0.00     0.082 C 
ATOM     31  C   UNL     1     -18.396  14.369 -23.077  1.00  0.00     0.025 C 
ATOM     32  C   UNL     1     -20.863  13.979 -23.375  1.00  0.00     0.025 C 
ATOM     33  C   UNL     1     -18.520  13.785 -21.661  1.00  0.00     0.002 C 
ATOM     34  C   UNL     1     -21.021  13.579 -21.910  1.00  0.00     0.002 C 
ATOM     35  C   UNL     1     -19.753  12.940 -21.422  1.00  0.00     0.000 C 
ENDBRANCH  28  30
ENDBRANCH   1  26
TORSDOF 8

ENDMDL
MODEL 3
REMARK VINA RESULT:    -9.233      2.152      6.714
REMARK INTER + INTRA:         -14.103
REMARK INTER:                 -11.620
REMARK INTRA:                  -2.483
REMARK CONF_INDEPENDENT:        2.386
REMARK UNBOUND:                 2.483
REMARK SMILES CC(C)(C)c1ccc(N(C(=O)c2c[nH]cn2)C(C(=O)NC2CCCCC2)c2cccnc2)cc1
REMARK SMILES IDX 17 1 9 2 10 3 11 4 12 5 16 6 13 7 15 8 14 9 8 10 33 11 7 12
REMARK SMILES IDX 34 13 6 14 5 15 2 16 4 17 3 18 1 19 27 20 32 21 28 22 31 23
REMARK SMILES IDX 29 24 30 25 18 26 19 27 20 28 21 30 26 31 22 32 25 33 23 34
REMARK SMILES IDX 24 35
REMARK H PARENT 20 29
REMARK Flexibility Score: inf
ROOT
ATOM      1  C   UNL     1     -20.865  16.685 -28.017  1.00  0.00     0.212 C 
ENDROOT
BRANCH   1   2
ATOM      2  N   UNL     1     -20.467  15.380 -27.580  1.00  0.00    -0.290 N 
BRANCH   2   3
ATOM      3  C   UNL     1     -20.243  14.321 -28.572  1.00  0.00     0.279 C 
ATOM      4  O   UNL     1     -19.195  14.305 -29.118  1.00  0.00    -0.267 OA
BRANCH   3   5
ATOM      5  C   UNL     1     -21.326  13.268 -28.902  1.00  0.00     0.146 A 
ATOM      6  N   UNL     1     -21.305  12.499 -29.969  1.00  0.00    -0.232 NA
ATOM      7  C   UNL     1     -22.480  12.969 -28.204  1.00  0.00     0.118 A 
ATOM      8  C   UNL     1     -22.408  11.724 -29.947  1.00  0.00     0.197 A 
ATOM      9  N   UNL     1     -23.127  12.018 -28.867  1.00  0.00    -0.350 N 
ENDBRANCH   3   5
ENDBRANCH   2   3
BRANCH   2  10
ATOM     10  C   UNL     1     -20.463  15.141 -26.117  1.00  0.00     0.045 A 
ATOM     11  C   UNL     1     -20.044  13.934 -25.592  1.00  0.00     0.027 A 
ATOM     12  C   UNL     1     -20.918  16.168 -25.284  1.00  0.00     0.027 A 
ATOM     13  C   UNL     1     -20.055  13.740 -24.199  1.00  0.00     0.006 A 
ATOM     14  C   UNL     1     -20.929  15.975 -23.897  1.00  0.00     0.006 A 
ATOM     15  C   UNL     1     -20.501  14.756 -23.355  1.00  0.00    -0.042 A 
BRANCH  15  16
ATOM     16  C   UNL     1     -20.510  14.547 -21.796  1.00  0.00    -0.013 C 
ATOM     17  C   UNL     1     -20.879  15.854 -21.100  1.00  0.00     0.016 C 
ATOM     18  C   UNL     1     -21.504  13.464 -21.325  1.00  0.00     0.016 C 
ATOM     19  C   UNL     1     -19.102  14.114 -21.378  1.00  0.00     0.016 C 
ENDBRANCH  15  16
ENDBRANCH   2  10
ENDBRANCH   1   2
BRANCH   1  20
ATOM     20  C   UNL     1     -21.543  16.812 -29.349  1.00  0.00     0.003 A 
ATOM     21  C   UNL     1     -21.036  17.630 -30.322  1.00  0.00     0.117 A 
ATOM     22  C   UNL     1     -22.686  16.123 -29.548  1.00  0.00     0.009 A 
ATOM     23  N   UNL     1     -21.691  17.781 -31.495  1.00  0.00    -0.264 NA
ATOM     24  C   UNL     1     -23.342  16.261 -30.745  1.00  0.00     0.020 A 
ATOM     25  C   UNL     1     -22.826  17.097 -31.716  1.00  0.00     0.111 A 
ENDBRANCH   1  20
BRANCH   1  26
ATOM     26  C   UNL     1     -19.580  17.539 -28.226  1.00  0.00     0.248 C 
ATOM     27  O   UNL     1     -18.628  17.106 -28.823  1.00  0.00    -0.272 OA
ATOM     28  N   UNL     1     -19.602  18.917 -27.706  1.00  0.00    -0.351 N 
ATOM     29  H   UNL     1     -20.310  19.190 -27.303  1.00  0.00     0.163 HD
BRANCH  28  30
ATOM     30  C   UNL     1     -18.494  19.831 -27.840  1.00  0.00     0.082 C 
ATOM     31  C   UNL     1     -17.882  20.038 -26.443  1.00  0.00     0.025 C 
ATOM     32  C   UNL     1     -19.071  21.143 -28.363  1.00  0.00     0.025 C 
ATOM     33  C   UNL     1     -16.925  21.240 -26.400  1.00  0.00     0.002 C 
ATOM     34  C   UNL     1     -18.012  22.240 -28.445  1.00  0.00     0.002 C 
ATOM     35  C   UNL     1     -17.441  22.492 -27.080  1.00  0.00     0.000 C 
ENDBRANCH  28  30
ENDBRANCH   1  26
TORSDOF 8

ENDMDL
MODEL 4
REMARK VINA RESULT:    -9.104      2.565      4.747
REMARK INTER + INTRA:         -14.196
REMARK INTER:                 -11.490
REMARK INTRA:                  -2.706
REMARK CONF_INDEPENDENT:        2.386
REMARK UNBOUND:                 2.706
REMARK SMILES CC(C)(C)c1ccc(N(C(=O)c2c[nH]cn2)C(C(=O)NC2CCCCC2)c2cccnc2)cc1
REMARK SMILES IDX 17 1 9 2 10 3 11 4 12 5 16 6 13 7 15 8 14 9 8 10 33 11 7 12
REMARK SMILES IDX 34 13 6 14 5 15 2 16 4 17 3 18 1 19 27 20 32 21 28 22 31 23
REMARK SMILES IDX 29 24 30 25 18 26 19 27 20 28 21 30 26 31 22 32 25 33 23 34
REMARK SMILES IDX 24 35
REMARK H PARENT 20 29
REMARK Flexibility Score: inf
ROOT
ATOM      1  C   UNL     1     -20.131  15.375 -27.723  1.00  0.00     0.212 C 
ENDROOT
BRANCH   1   2
ATOM      2  N   UNL     1     -20.244  16.668 -28.330  1.00  0.00    -0.290 N 
BRANCH   2   3
ATOM      3  C   UNL     1     -19.381  17.763 -27.868  1.00  0.00     0.279 C 
ATOM      4  O   UNL     1     -18.498  18.092 -28.581  1.00  0.00    -0.267 OA
BRANCH   3   5
ATOM      5  C   UNL     1     -19.605  18.462 -26.508  1.00  0.00     0.146 A 
ATOM      6  N   UNL     1     -19.003  18.112 -25.392  1.00  0.00    -0.232 NA
ATOM      7  C   UNL     1     -20.458  19.506 -26.203  1.00  0.00     0.118 A 
ATOM      8  C   UNL     1     -19.449  18.916 -24.406  1.00  0.00     0.197 A 
ATOM      9  N   UNL     1     -20.344  19.765 -24.906  1.00  0.00    -0.350 N 
ENDBRANCH   3   5
ENDBRANCH   2   3
BRANCH   2  10
ATOM     10  C   UNL     1     -21.357  16.856 -29.290  1.00  0.00     0.045 A 
ATOM     11  C   UNL     1     -22.476  17.592 -28.952  1.00  0.00     0.027 A 
ATOM     12  C   UNL     1     -21.250  16.246 -30.544  1.00  0.00     0.027 A 
ATOM     13  C   UNL     1     -23.514  17.748 -29.887  1.00  0.00     0.006 A 
ATOM     14  C   UNL     1     -22.284  16.402 -31.476  1.00  0.00     0.006 A 
ATOM     15  C   UNL     1     -23.420  17.151 -31.144  1.00  0.00    -0.042 A 
BRANCH  15  16
ATOM     16  C   UNL     1     -24.576  17.327 -32.196  1.00  0.00    -0.013 C 
ATOM     17  C   UNL     1     -24.874  18.811 -32.393  1.00  0.00     0.016 C 
ATOM     18  C   UNL     1     -24.251  16.722 -33.578  1.00  0.00     0.016 C 
ATOM     19  C   UNL     1     -25.816  16.616 -31.645  1.00  0.00     0.016 C 
ENDBRANCH  15  16
ENDBRANCH   2  10
ENDBRANCH   1   2
BRANCH   1  20
ATOM     20  C   UNL     1     -21.093  14.305 -28.146  1.00  0.00     0.003 A 
ATOM     21  C   UNL     1     -22.285  14.133 -27.497  1.00  0.00     0.117 A 
ATOM     22  C   UNL     1     -20.734  13.493 -29.162  1.00  0.00     0.009 A 
ATOM     23  N   UNL     1     -23.115  13.126 -27.850  1.00  0.00    -0.264 NA
ATOM     24  C   UNL     1     -21.584  12.482 -29.534  1.00  0.00     0.020 A 
ATOM     25  C   UNL     1     -22.780  12.313 -28.864  1.00  0.00     0.111 A 
ENDBRANCH   1  20
BRANCH   1  26
ATOM     26  C   UNL     1     -20.457  15.521 -26.207  1.00  0.00     0.248 C 
ATOM     27  O   UNL     1     -21.426  16.128 -25.829  1.00  0.00    -0.272 OA
ATOM     28  N   UNL     1     -19.555  14.842 -25.261  1.00  0.00    -0.351 N 
ATOM     29  H   UNL     1     -18.886  14.406 -25.578  1.00  0.00     0.163 HD
BRANCH  28  30
ATOM     30  C   UNL     1     -19.739  14.874 -23.831  1.00  0.00     0.082 C 
ATOM     31  C   UNL     1     -18.429  14.400 -23.176  1.00  0.00     0.025 C 
ATOM     32  C   UNL     1     -20.870  13.899 -23.515  1.00  0.00     0.025 C 
ATOM     33  C   UNL     1     -18.612  14.066 -21.687  1.00  0.00     0.002 C 
ATOM     34  C   UNL     1     -21.094  13.752 -22.012  1.00  0.00     0.002 C 
ATOM     35  C   UNL     1     -19.840  13.241 -21.363  1.00  0.00     0.000 C 
ENDBRANCH  28  30
ENDBRANCH   1  26
TORSDOF 8

ENDMDL
MODEL 5
REMARK VINA RESULT:    -9.052      1.139      1.667
REMARK INTER + INTRA:         -14.713
REMARK INTER:                 -11.439
REMARK INTRA:                  -3.275
REMARK CONF_INDEPENDENT:        2.386
REMARK UNBOUND:                 3.275
REMARK SMILES CC(C)(C)c1ccc(N(C(=O)c2c[nH]cn2)C(C(=O)NC2CCCCC2)c2cccnc2)cc1
REMARK SMILES IDX 17 1 9 2 10 3 11 4 12 5 16 6 13 7 15 8 14 9 8 10 33 11 7 12
REMARK SMILES IDX 34 13 6 14 5 15 2 16 4 17 3 18 1 19 27 20 32 21 28 22 31 23
REMARK SMILES IDX 29 24 30 25 18 26 19 27 20 28 21 30 26 31 22 32 25 33 23 34
REMARK SMILES IDX 24 35
REMARK H PARENT 20 29
REMARK Flexibility Score: inf
ROOT
ATOM      1  C   UNL     1     -20.458  15.175 -27.481  1.00  0.00     0.212 C 
ENDROOT
BRANCH   1   2
ATOM      2  N   UNL     1     -20.998  16.333 -26.832  1.00  0.00    -0.290 N 
BRANCH   2   3
ATOM      3  C   UNL     1     -22.378  16.305 -26.330  1.00  0.00     0.279 C 
ATOM      4  O   UNL     1     -22.700  15.367 -25.688  1.00  0.00    -0.267 OA
BRANCH   3   5
ATOM      5  C   UNL     1     -23.378  17.446 -26.626  1.00  0.00     0.146 A 
ATOM      6  N   UNL     1     -23.502  18.033 -27.797  1.00  0.00    -0.232 NA
ATOM      7  C   UNL     1     -24.261  18.066 -25.762  1.00  0.00     0.118 A 
ATOM      8  C   UNL     1     -24.445  18.990 -27.687  1.00  0.00     0.197 A 
ATOM      9  N   UNL     1     -24.904  19.011 -26.438  1.00  0.00    -0.350 N 
ENDBRANCH   3   5
ENDBRANCH   2   3
BRANCH   2  10
ATOM     10  C   UNL     1     -20.163  17.557 -26.856  1.00  0.00     0.045 A 
ATOM     11  C   UNL     1     -19.472  17.929 -27.993  1.00  0.00     0.027 A 
ATOM     12  C   UNL     1     -20.078  18.315 -25.684  1.00  0.00     0.027 A 
ATOM     13  C   UNL     1     -18.687  19.096 -27.979  1.00  0.00     0.006 A 
ATOM     14  C   UNL     1     -19.297  19.477 -25.670  1.00  0.00     0.006 A 
ATOM     15  C   UNL     1     -18.597  19.865 -26.820  1.00  0.00    -0.042 A 
BRANCH  15  16
ATOM     16  C   UNL     1     -17.725  21.174 -26.801  1.00  0.00    -0.013 C 
ATOM     17  C   UNL     1     -17.852  21.900 -28.138  1.00  0.00     0.016 C 
ATOM     18  C   UNL     1     -18.123  22.164 -25.685  1.00  0.00     0.016 C 
ATOM     19  C   UNL     1     -16.269  20.758 -26.571  1.00  0.00     0.016 C 
ENDBRANCH  15  16
ENDBRANCH   2  10
ENDBRANCH   1   2
BRANCH   1  20
ATOM     20  C   UNL     1     -21.382  14.329 -28.307  1.00  0.00     0.003 A 
ATOM     21  C   UNL     1     -22.023  13.249 -27.763  1.00  0.00     0.117 A 
ATOM     22  C   UNL     1     -21.536  14.642 -29.610  1.00  0.00     0.009 A 
ATOM     23  N   UNL     1     -22.804  12.460 -28.534  1.00  0.00    -0.264 NA
ATOM     24  C   UNL     1     -22.343  13.853 -30.390  1.00  0.00     0.020 A 
ATOM     25  C   UNL     1     -22.977  12.760 -29.831  1.00  0.00     0.111 A 
ENDBRANCH   1  20
BRANCH   1  26
ATOM     26  C   UNL     1     -20.000  14.173 -26.381  1.00  0.00     0.248 C 
ATOM     27  O   UNL     1     -19.402  13.165 -26.658  1.00  0.00    -0.272 OA
ATOM     28  N   UNL     1     -20.285  14.540 -24.983  1.00  0.00    -0.351 N 
ATOM     29  H   UNL     1     -20.698  15.278 -24.831  1.00  0.00     0.163 HD
BRANCH  28  30
ATOM     30  C   UNL     1     -19.906  13.721 -23.857  1.00  0.00     0.082 C 
ATOM     31  C   UNL     1     -21.041  13.791 -22.820  1.00  0.00     0.025 C 
ATOM     32  C   UNL     1     -18.630  14.331 -23.285  1.00  0.00     0.025 C 
ATOM     33  C   UNL     1     -20.610  13.246 -21.449  1.00  0.00     0.002 C 
ATOM     34  C   UNL     1     -18.179  13.620 -22.011  1.00  0.00     0.002 C 
ATOM     35  C   UNL     1     -19.255  13.723 -20.969  1.00  0.00     0.000 C 
ENDBRANCH  28  30
ENDBRANCH   1  26
TORSDOF 8

ENDMDL
MODEL 6
REMARK VINA RESULT:    -8.960      3.178      7.169
REMARK INTER + INTRA:         -14.607
REMARK INTER:                 -11.346
REMARK INTRA:                  -3.261
REMARK CONF_INDEPENDENT:        2.386
REMARK UNBOUND:                 3.261
REMARK SMILES CC(C)(C)c1ccc(N(C(=O)c2c[nH]cn2)C(C(=O)NC2CCCCC2)c2cccnc2)cc1
REMARK SMILES IDX 17 1 9 2 10 3 11 4 12 5 16 6 13 7 15 8 14 9 8 10 33 11 7 12
REMARK SMILES IDX 34 13 6 14 5 15 2 16 4 17 3 18 1 19 27 20 32 21 28 22 31 23
REMARK SMILES IDX 29 24 30 25 18 26 19 27 20 28 21 30 26 31 22 32 25 33 23 34
REMARK SMILES IDX 24 35
REMARK H PARENT 20 29
REMARK Flexibility Score: inf
ROOT
ATOM      1  C   UNL     1     -19.638  20.387 -27.152  1.00  0.00     0.212 C 
ENDROOT
BRANCH   1   2
ATOM      2  N   UNL     1     -19.845  19.829 -28.455  1.00  0.00    -0.290 N 
BRANCH   2   3
ATOM      3  C   UNL     1     -19.995  20.724 -29.611  1.00  0.00     0.279 C 
ATOM      4  O   UNL     1     -19.783  21.873 -29.435  1.00  0.00    -0.267 OA
BRANCH   3   5
ATOM      5  C   UNL     1     -20.416  20.198 -31.002  1.00  0.00     0.146 A 
ATOM      6  N   UNL     1     -21.128  19.108 -31.194  1.00  0.00    -0.232 NA
ATOM      7  C   UNL     1     -20.115  20.715 -32.248  1.00  0.00     0.118 A 
ATOM      8  C   UNL     1     -21.287  18.941 -32.522  1.00  0.00     0.197 A 
ATOM      9  N   UNL     1     -20.661  19.924 -33.164  1.00  0.00    -0.350 N 
ENDBRANCH   3   5
ENDBRANCH   2   3
BRANCH   2  10
ATOM     10  C   UNL     1     -20.058  18.364 -28.525  1.00  0.00     0.045 A 
ATOM     11  C   UNL     1     -19.003  17.499 -28.743  1.00  0.00     0.027 A 
ATOM     12  C   UNL     1     -21.364  17.884 -28.386  1.00  0.00     0.027 A 
ATOM     13  C   UNL     1     -19.241  16.114 -28.807  1.00  0.00     0.006 A 
ATOM     14  C   UNL     1     -21.601  16.505 -28.449  1.00  0.00     0.006 A 
ATOM     15  C   UNL     1     -20.537  15.620 -28.664  1.00  0.00    -0.042 A 
BRANCH  15  16
ATOM     16  C   UNL     1     -20.808  14.072 -28.729  1.00  0.00    -0.013 C 
ATOM     17  C   UNL     1     -21.540  13.622 -27.467  1.00  0.00     0.016 C 
ATOM     18  C   UNL     1     -21.655  13.644 -29.946  1.00  0.00     0.016 C 
ATOM     19  C   UNL     1     -19.451  13.367 -28.822  1.00  0.00     0.016 C 
ENDBRANCH  15  16
ENDBRANCH   2  10
ENDBRANCH   1   2
BRANCH   1  20
ATOM     20  C   UNL     1     -18.431  21.249 -26.932  1.00  0.00     0.003 A 
ATOM     21  C   UNL     1     -17.307  21.094 -27.696  1.00  0.00     0.117 A 
ATOM     22  C   UNL     1     -18.472  22.158 -25.935  1.00  0.00     0.009 A 
ATOM     23  N   UNL     1     -16.205  21.837 -27.447  1.00  0.00    -0.264 NA
ATOM     24  C   UNL     1     -17.361  22.926 -25.693  1.00  0.00     0.020 A 
ATOM     25  C   UNL     1     -16.228  22.753 -26.465  1.00  0.00     0.111 A 
ENDBRANCH   1  20
BRANCH   1  26
ATOM     26  C   UNL     1     -19.384  19.215 -26.158  1.00  0.00     0.248 C 
ATOM     27  O   UNL     1     -18.268  18.902 -25.829  1.00  0.00    -0.272 OA
ATOM     28  N   UNL     1     -20.569  18.542 -25.602  1.00  0.00    -0.351 N 
ATOM     29  H   UNL     1     -21.346  18.811 -25.852  1.00  0.00     0.163 HD
BRANCH  28  30
ATOM     30  C   UNL     1     -20.491  17.453 -24.659  1.00  0.00     0.082 C 
ATOM     31  C   UNL     1     -19.378  16.500 -25.130  1.00  0.00     0.025 C 
ATOM     32  C   UNL     1     -21.843  16.746 -24.696  1.00  0.00     0.025 C 
ATOM     33  C   UNL     1     -19.431  15.144 -24.409  1.00  0.00     0.002 C 
ATOM     34  C   UNL     1     -21.857  15.496 -23.819  1.00  0.00     0.002 C 
ATOM     35  C   UNL     1     -20.811  14.532 -24.298  1.00  0.00     0.000 C 
ENDBRANCH  28  30
ENDBRANCH   1  26
TORSDOF 8

ENDMDL
MODEL 7
REMARK VINA RESULT:    -8.540      2.247      5.838
REMARK INTER + INTRA:         -14.121
REMARK INTER:                 -10.927
REMARK INTRA:                  -3.195
REMARK CONF_INDEPENDENT:        2.386
REMARK UNBOUND:                 3.195
REMARK SMILES CC(C)(C)c1ccc(N(C(=O)c2c[nH]cn2)C(C(=O)NC2CCCCC2)c2cccnc2)cc1
REMARK SMILES IDX 17 1 9 2 10 3 11 4 12 5 16 6 13 7 15 8 14 9 8 10 33 11 7 12
REMARK SMILES IDX 34 13 6 14 5 15 2 16 4 17 3 18 1 19 27 20 32 21 28 22 31 23
REMARK SMILES IDX 29 24 30 25 18 26 19 27 20 28 21 30 26 31 22 32 25 33 23 34
REMARK SMILES IDX 24 35
REMARK H PARENT 20 29
REMARK Flexibility Score: inf
ROOT
ATOM      1  C   UNL     1     -20.984  14.961 -24.394  1.00  0.00     0.212 C 
ENDROOT
BRANCH   1   2
ATOM      2  N   UNL     1     -20.768  16.300 -24.858  1.00  0.00    -0.290 N 
BRANCH   2   3
ATOM      3  C   UNL     1     -20.407  17.350 -23.897  1.00  0.00     0.279 C 
ATOM      4  O   UNL     1     -20.594  17.123 -22.752  1.00  0.00    -0.267 OA
BRANCH   3   5
ATOM      5  C   UNL     1     -19.810  18.702 -24.350  1.00  0.00     0.146 A 
ATOM      6  N   UNL     1     -19.003  18.843 -25.380  1.00  0.00    -0.232 NA
ATOM      7  C   UNL     1     -19.965  19.950 -23.778  1.00  0.00     0.118 A 
ATOM      8  C   UNL     1     -18.662  20.145 -25.469  1.00  0.00     0.197 A 
ATOM      9  N   UNL     1     -19.250  20.819 -24.483  1.00  0.00    -0.350 N 
ENDBRANCH   3   5
ENDBRANCH   2   3
BRANCH   2  10
ATOM     10  C   UNL     1     -21.088  16.570 -26.279  1.00  0.00     0.045 A 
ATOM     11  C   UNL     1     -20.113  16.499 -27.256  1.00  0.00     0.027 A 
ATOM     12  C   UNL     1     -22.402  16.922 -26.600  1.00  0.00     0.027 A 
ATOM     13  C   UNL     1     -20.451  16.764 -28.595  1.00  0.00     0.006 A 
ATOM     14  C   UNL     1     -22.738  17.186 -27.934  1.00  0.00     0.006 A 
ATOM     15  C   UNL     1     -21.759  17.111 -28.932  1.00  0.00    -0.042 A 
BRANCH  15  16
ATOM     16  C   UNL     1     -22.142  17.403 -30.429  1.00  0.00    -0.013 C 
ATOM     17  C   UNL     1     -21.251  18.510 -30.985  1.00  0.00     0.016 C 
ATOM     18  C   UNL     1     -22.004  16.174 -31.353  1.00  0.00     0.016 C 
ATOM     19  C   UNL     1     -23.607  17.853 -30.453  1.00  0.00     0.016 C 
ENDBRANCH  15  16
ENDBRANCH   2  10
ENDBRANCH   1   2
BRANCH   1  20
ATOM     20  C   UNL     1     -20.034  14.400 -23.378  1.00  0.00     0.003 A 
ATOM     21  C   UNL     1     -20.463  13.518 -22.424  1.00  0.00     0.117 A 
ATOM     22  C   UNL     1     -18.750  14.816 -23.410  1.00  0.00     0.009 A 
ATOM     23  N   UNL     1     -19.608  13.068 -21.478  1.00  0.00    -0.264 NA
ATOM     24  C   UNL     1     -17.877  14.346 -22.462  1.00  0.00     0.020 A 
ATOM     25  C   UNL     1     -18.325  13.463 -21.498  1.00  0.00     0.111 A 
ENDBRANCH   1  20
BRANCH   1  26
ATOM     26  C   UNL     1     -20.780  13.993 -25.596  1.00  0.00     0.248 C 
ATOM     27  O   UNL     1     -19.775  13.340 -25.714  1.00  0.00    -0.272 OA
ATOM     28  N   UNL     1     -21.892  13.874 -26.554  1.00  0.00    -0.351 N 
ATOM     29  H   UNL     1     -22.598  14.346 -26.420  1.00  0.00     0.163 HD
BRANCH  28  30
ATOM     30  C   UNL     1     -21.856  13.006 -27.705  1.00  0.00     0.082 C 
ATOM     31  C   UNL     1     -20.615  13.378 -28.537  1.00  0.00     0.025 C 
ATOM     32  C   UNL     1     -23.128  13.284 -28.501  1.00  0.00     0.025 C 
ATOM     33  C   UNL     1     -20.656  12.766 -29.946  1.00  0.00     0.002 C 
ATOM     34  C   UNL     1     -23.161  12.505 -29.814  1.00  0.00     0.002 C 
ATOM     35  C   UNL     1     -21.985  12.895 -30.661  1.00  0.00     0.000 C 
ENDBRANCH  28  30
ENDBRANCH   1  26
TORSDOF 8

ENDMDL
MODEL 8
REMARK VINA RESULT:    -8.438      3.461      7.144
REMARK INTER + INTRA:         -14.055
REMARK INTER:                 -10.824
REMARK INTRA:                  -3.231
REMARK CONF_INDEPENDENT:        2.386
REMARK UNBOUND:                 3.231
REMARK SMILES CC(C)(C)c1ccc(N(C(=O)c2c[nH]cn2)C(C(=O)NC2CCCCC2)c2cccnc2)cc1
REMARK SMILES IDX 17 1 9 2 10 3 11 4 12 5 16 6 13 7 15 8 14 9 8 10 33 11 7 12
REMARK SMILES IDX 34 13 6 14 5 15 2 16 4 17 3 18 1 19 27 20 32 21 28 22 31 23
REMARK SMILES IDX 29 24 30 25 18 26 19 27 20 28 21 30 26 31 22 32 25 33 23 34
REMARK SMILES IDX 24 35
REMARK H PARENT 20 29
REMARK Flexibility Score: inf
ROOT
ATOM      1  C   UNL     1     -19.571  20.821 -26.884  1.00  0.00     0.212 C 
ENDROOT
BRANCH   1   2
ATOM      2  N   UNL     1     -19.866  20.423 -28.229  1.00  0.00    -0.290 N 
BRANCH   2   3
ATOM      3  C   UNL     1     -20.009  21.448 -29.272  1.00  0.00     0.279 C 
ATOM      4  O   UNL     1     -19.017  21.868 -29.757  1.00  0.00    -0.267 OA
BRANCH   3   5
ATOM      5  C   UNL     1     -21.394  21.966 -29.724  1.00  0.00     0.146 A 
ATOM      6  N   UNL     1     -21.573  22.864 -30.669  1.00  0.00    -0.232 NA
ATOM      7  C   UNL     1     -22.642  21.637 -29.230  1.00  0.00     0.118 A 
ATOM      8  C   UNL     1     -22.897  23.093 -30.782  1.00  0.00     0.197 A 
ATOM      9  N   UNL     1     -23.548  22.343 -29.896  1.00  0.00    -0.350 N 
ENDBRANCH   3   5
ENDBRANCH   2   3
BRANCH   2  10
ATOM     10  C   UNL     1     -20.170  18.990 -28.447  1.00  0.00     0.045 A 
ATOM     11  C   UNL     1     -19.169  18.086 -28.752  1.00  0.00     0.027 A 
ATOM     12  C   UNL     1     -21.504  18.581 -28.357  1.00  0.00     0.027 A 
ATOM     13  C   UNL     1     -19.494  16.733 -28.955  1.00  0.00     0.006 A 
ATOM     14  C   UNL     1     -21.826  17.233 -28.559  1.00  0.00     0.006 A 
ATOM     15  C   UNL     1     -20.819  16.309 -28.863  1.00  0.00    -0.042 A 
BRANCH  15  16
ATOM     16  C   UNL     1     -21.186  14.795 -29.084  1.00  0.00    -0.013 C 
ATOM     17  C   UNL     1     -22.003  14.643 -30.364  1.00  0.00     0.016 C 
ATOM     18  C   UNL     1     -19.955  13.871 -29.195  1.00  0.00     0.016 C 
ATOM     19  C   UNL     1     -22.016  14.340 -27.880  1.00  0.00     0.016 C 
ENDBRANCH  15  16
ENDBRANCH   2  10
ENDBRANCH   1   2
BRANCH   1  20
ATOM     20  C   UNL     1     -18.301  21.577 -26.630  1.00  0.00     0.003 A 
ATOM     21  C   UNL     1     -17.198  21.388 -27.418  1.00  0.00     0.117 A 
ATOM     22  C   UNL     1     -18.265  22.424 -25.580  1.00  0.00     0.009 A 
ATOM     23  N   UNL     1     -16.042  22.031 -27.140  1.00  0.00    -0.264 NA
ATOM     24  C   UNL     1     -17.098  23.092 -25.307  1.00  0.00     0.020 A 
ATOM     25  C   UNL     1     -15.989  22.885 -26.104  1.00  0.00     0.111 A 
ENDBRANCH   1  20
BRANCH   1  26
ATOM     26  C   UNL     1     -19.356  19.533 -26.035  1.00  0.00     0.248 C 
ATOM     27  O   UNL     1     -18.253  19.098 -25.822  1.00  0.00    -0.272 OA
ATOM     28  N   UNL     1     -20.557  18.902 -25.463  1.00  0.00    -0.351 N 
ATOM     29  H   UNL     1     -21.322  19.258 -25.627  1.00  0.00     0.163 HD
BRANCH  28  30
ATOM     30  C   UNL     1     -20.513  17.717 -24.643  1.00  0.00     0.082 C 
ATOM     31  C   UNL     1     -19.687  16.656 -25.391  1.00  0.00     0.025 C 
ATOM     32  C   UNL     1     -21.956  17.245 -24.481  1.00  0.00     0.025 C 
ATOM     33  C   UNL     1     -19.856  15.254 -24.784  1.00  0.00     0.002 C 
ATOM     34  C   UNL     1     -22.042  15.924 -23.720  1.00  0.00     0.002 C 
ATOM     35  C   UNL     1     -21.284  14.864 -24.464  1.00  0.00     0.000 C 
ENDBRANCH  28  30
ENDBRANCH   1  26
TORSDOF 8

ENDMDL
MODEL 9
REMARK VINA RESULT:    -8.285      1.363      4.171
REMARK INTER + INTRA:         -14.018
REMARK INTER:                 -10.671
REMARK INTRA:                  -3.347
REMARK CONF_INDEPENDENT:        2.386
REMARK UNBOUND:                 3.347
REMARK SMILES CC(C)(C)c1ccc(N(C(=O)c2c[nH]cn2)C(C(=O)NC2CCCCC2)c2cccnc2)cc1
REMARK SMILES IDX 17 1 9 2 10 3 11 4 12 5 16 6 13 7 15 8 14 9 8 10 33 11 7 12
REMARK SMILES IDX 34 13 6 14 5 15 2 16 4 17 3 18 1 19 27 20 32 21 28 22 31 23
REMARK SMILES IDX 29 24 30 25 18 26 19 27 20 28 21 30 26 31 22 32 25 33 23 34
REMARK SMILES IDX 24 35
REMARK H PARENT 20 29
REMARK Flexibility Score: inf
ROOT
ATOM      1  C   UNL     1     -22.180  16.282 -26.138  1.00  0.00     0.212 C 
ENDROOT
BRANCH   1   2
ATOM      2  N   UNL     1     -20.944  16.180 -26.855  1.00  0.00    -0.290 N 
BRANCH   2   3
ATOM      3  C   UNL     1     -20.435  14.856 -27.237  1.00  0.00     0.279 C 
ATOM      4  O   UNL     1     -19.383  14.536 -26.805  1.00  0.00    -0.267 OA
BRANCH   3   5
ATOM      5  C   UNL     1     -21.231  13.912 -28.168  1.00  0.00     0.146 A 
ATOM      6  N   UNL     1     -22.288  13.225 -27.792  1.00  0.00    -0.232 NA
ATOM      7  C   UNL     1     -20.983  13.591 -29.489  1.00  0.00     0.118 A 
ATOM      8  C   UNL     1     -22.710  12.497 -28.845  1.00  0.00     0.197 A 
ATOM      9  N   UNL     1     -21.906  12.720 -29.881  1.00  0.00    -0.350 N 
ENDBRANCH   3   5
ENDBRANCH   2   3
BRANCH   2  10
ATOM     10  C   UNL     1     -20.169  17.431 -27.026  1.00  0.00     0.045 A 
ATOM     11  C   UNL     1     -20.126  18.084 -28.243  1.00  0.00     0.027 A 
ATOM     12  C   UNL     1     -19.463  17.920 -25.923  1.00  0.00     0.027 A 
ATOM     13  C   UNL     1     -19.378  19.269 -28.370  1.00  0.00     0.006 A 
ATOM     14  C   UNL     1     -18.718  19.100 -26.049  1.00  0.00     0.006 A 
ATOM     15  C   UNL     1     -18.673  19.772 -27.277  1.00  0.00    -0.042 A 
BRANCH  15  16
ATOM     16  C   UNL     1     -17.840  21.099 -27.412  1.00  0.00    -0.013 C 
ATOM     17  C   UNL     1     -16.378  20.766 -27.697  1.00  0.00     0.016 C 
ATOM     18  C   UNL     1     -18.341  22.031 -28.537  1.00  0.00     0.016 C 
ATOM     19  C   UNL     1     -17.952  21.854 -26.084  1.00  0.00     0.016 C 
ENDBRANCH  15  16
ENDBRANCH   2  10
ENDBRANCH   1   2
BRANCH   1  20
ATOM     20  C   UNL     1     -22.849  17.622 -26.064  1.00  0.00     0.003 A 
ATOM     21  C   UNL     1     -23.792  17.991 -26.985  1.00  0.00     0.117 A 
ATOM     22  C   UNL     1     -22.470  18.469 -25.084  1.00  0.00     0.009 A 
ATOM     23  N   UNL     1     -24.342  19.225 -26.942  1.00  0.00    -0.264 NA
ATOM     24  C   UNL     1     -23.041  19.715 -25.027  1.00  0.00     0.020 A 
ATOM     25  C   UNL     1     -23.985  20.079 -25.969  1.00  0.00     0.111 A 
ENDBRANCH   1  20
BRANCH   1  26
ATOM     26  C   UNL     1     -21.896  15.979 -24.638  1.00  0.00     0.248 C 
ATOM     27  O   UNL     1     -22.760  16.074 -23.803  1.00  0.00    -0.272 OA
ATOM     28  N   UNL     1     -20.539  15.524 -24.294  1.00  0.00    -0.351 N 
ATOM     29  H   UNL     1     -19.960  15.454 -24.925  1.00  0.00     0.163 HD
BRANCH  28  30
ATOM     30  C   UNL     1     -20.133  15.190 -22.950  1.00  0.00     0.082 C 
ATOM     31  C   UNL     1     -18.716  14.595 -23.019  1.00  0.00     0.025 C 
ATOM     32  C   UNL     1     -21.122  14.144 -22.443  1.00  0.00     0.025 C 
ATOM     33  C   UNL     1     -18.316  13.892 -21.712  1.00  0.00     0.002 C 
ATOM     34  C   UNL     1     -20.738  13.618 -21.062  1.00  0.00     0.002 C 
ATOM     35  C   UNL     1     -19.378  12.986 -21.123  1.00  0.00     0.000 C 
ENDBRANCH  28  30
ENDBRANCH   1  26
TORSDOF 8

ENDMDL
