MODEL 1
REMARK VINA RESULT:    -9.316      0.000      0.000
REMARK INTER + INTRA:         -15.032
REMARK INTER:                 -11.702
REMARK INTRA:                  -3.330
REMARK CONF_INDEPENDENT:        2.386
REMARK UNBOUND:                 3.330
REMARK SMILES CC(C)(C)c1ccc(N(C(=O)c2c[nH]cn2)C(C(=O)NC2CCCCC2)c2cccnc2)cc1
REMARK SMILES IDX 17 1 9 2 10 3 11 4 12 5 16 6 13 7 15 8 14 9 8 10 33 11 7 12
REMARK SMILES IDX 34 13 6 14 5 15 2 16 4 17 3 18 1 19 27 20 32 21 28 22 31 23
REMARK SMILES IDX 29 24 30 25 18 26 19 27 20 28 21 30 26 31 22 32 25 33 23 34
REMARK SMILES IDX 24 35
REMARK H PARENT 20 29
REMARK Flexibility Score: inf
ROOT
ATOM      1  C   UNL     1     -20.540  15.194 -27.461  1.00  0.00     0.212 C 
ENDROOT
BRANCH   1   2
ATOM      2  N   UNL     1     -21.065  16.357 -26.809  1.00  0.00    -0.290 N 
BRANCH   2   3
ATOM      3  C   UNL     1     -22.416  16.317 -26.233  1.00  0.00     0.279 C 
ATOM      4  O   UNL     1     -23.277  15.871 -26.907  1.00  0.00    -0.267 OA
BRANCH   3   5
ATOM      5  C   UNL     1     -22.712  16.837 -24.808  1.00  0.00     0.146 A 
ATOM      6  N   UNL     1     -22.585  16.112 -23.717  1.00  0.00    -0.232 NA
ATOM      7  C   UNL     1     -23.177  18.080 -24.421  1.00  0.00     0.118 A 
ATOM      8  C   UNL     1     -22.947  16.873 -22.665  1.00  0.00     0.197 A 
ATOM      9  N   UNL     1     -23.313  18.076 -23.100  1.00  0.00    -0.350 N 
ENDBRANCH   3   5
ENDBRANCH   2   3
BRANCH   2  10
ATOM     10  C   UNL     1     -20.256  17.595 -26.903  1.00  0.00     0.045 A 
ATOM     11  C   UNL     1     -19.930  18.144 -28.128  1.00  0.00     0.027 A 
ATOM     12  C   UNL     1     -19.811  18.178 -25.713  1.00  0.00     0.027 A 
ATOM     13  C   UNL     1     -19.158  19.318 -28.181  1.00  0.00     0.006 A 
ATOM     14  C   UNL     1     -19.042  19.348 -25.765  1.00  0.00     0.006 A 
ATOM     15  C   UNL     1     -18.712  19.916 -27.002  1.00  0.00    -0.042 A 
BRANCH  15  16
ATOM     16  C   UNL     1     -17.853  21.232 -27.055  1.00  0.00    -0.013 C 
ATOM     17  C   UNL     1     -18.107  21.964 -28.370  1.00  0.00     0.016 C 
ATOM     18  C   UNL     1     -18.155  22.213 -25.902  1.00  0.00     0.016 C 
ATOM     19  C   UNL     1     -16.378  20.827 -26.962  1.00  0.00     0.016 C 
ENDBRANCH  15  16
ENDBRANCH   2  10
ENDBRANCH   1   2
BRANCH   1  20
ATOM     20  C   UNL     1     -21.482  14.339 -28.255  1.00  0.00     0.003 A 
ATOM     21  C   UNL     1     -22.085  13.247 -27.694  1.00  0.00     0.117 A 
ATOM     22  C   UNL     1     -21.690  14.657 -29.550  1.00  0.00     0.009 A 
ATOM     23  N   UNL     1     -22.884  12.451 -28.439  1.00  0.00    -0.264 NA
ATOM     24  C   UNL     1     -22.516  13.861 -30.303  1.00  0.00     0.020 A 
ATOM     25  C   UNL     1     -23.112  12.755 -29.727  1.00  0.00     0.111 A 
ENDBRANCH   1  20
BRANCH   1  26
ATOM     26  C   UNL     1     -20.052  14.203 -26.363  1.00  0.00     0.248 C 
ATOM     27  O   UNL     1     -19.383  13.240 -26.639  1.00  0.00    -0.272 OA
ATOM     28  N   UNL     1     -20.402  14.524 -24.969  1.00  0.00    -0.351 N 
ATOM     29  H   UNL     1     -20.866  15.232 -24.819  1.00  0.00     0.163 HD
BRANCH  28  30
ATOM     30  C   UNL     1     -20.006  13.710 -23.847  1.00  0.00     0.082 C 
ATOM     31  C   UNL     1     -21.126  13.782 -22.793  1.00  0.00     0.025 C 
ATOM     32  C   UNL     1     -18.722  14.324 -23.295  1.00  0.00     0.025 C 
ATOM     33  C   UNL     1     -20.674  13.243 -21.427  1.00  0.00     0.002 C 
ATOM     34  C   UNL     1     -18.253  13.618 -22.024  1.00  0.00     0.002 C 
ATOM     35  C   UNL     1     -19.314  13.724 -20.968  1.00  0.00     0.000 C 
ENDBRANCH  28  30
ENDBRANCH   1  26
TORSDOF 8

ENDMDL
MODEL 2
REMARK VINA RESULT:    -9.226      2.529      4.743
REMARK INTER + INTRA:         -14.292
REMARK INTER:                 -11.612
REMARK INTRA:                  -2.679
REMARK CONF_INDEPENDENT:        2.386
REMARK UNBOUND:                 2.679
REMARK SMILES CC(C)(C)c1ccc(N(C(=O)c2c[nH]cn2)C(C(=O)NC2CCCCC2)c2cccnc2)cc1
REMARK SMILES IDX 17 1 9 2 10 3 11 4 12 5 16 6 13 7 15 8 14 9 8 10 33 11 7 12
REMARK SMILES IDX 34 13 6 14 5 15 2 16 4 17 3 18 1 19 27 20 32 21 28 22 31 23
REMARK SMILES IDX 29 24 30 25 18 26 19 27 20 28 21 30 26 31 22 32 25 33 23 34
REMARK SMILES IDX 24 35
REMARK H PARENT 20 29
REMARK Flexibility Score: inf
ROOT
ATOM      1  C   UNL     1     -20.190  15.350 -27.707  1.00  0.00     0.212 C 
ENDROOT
BRANCH   1   2
ATOM      2  N   UNL     1     -20.331  16.645 -28.306  1.00  0.00    -0.290 N 
BRANCH   2   3
ATOM      3  C   UNL     1     -19.526  17.766 -27.805  1.00  0.00     0.279 C 
ATOM      4  O   UNL     1     -18.624  18.127 -28.478  1.00  0.00    -0.267 OA
BRANCH   3   5
ATOM      5  C   UNL     1     -19.831  18.452 -26.453  1.00  0.00     0.146 A 
ATOM      6  N   UNL     1     -19.000  18.475 -25.434  1.00  0.00    -0.232 NA
ATOM      7  C   UNL     1     -20.983  19.105 -26.057  1.00  0.00     0.118 A 
ATOM      8  C   UNL     1     -19.598  19.134 -24.421  1.00  0.00     0.197 A 
ATOM      9  N   UNL     1     -20.814  19.514 -24.805  1.00  0.00    -0.350 N 
ENDBRANCH   3   5
ENDBRANCH   2   3
BRANCH   2  10
ATOM     10  C   UNL     1     -21.417  16.802 -29.302  1.00  0.00     0.045 A 
ATOM     11  C   UNL     1     -22.568  17.506 -28.999  1.00  0.00     0.027 A 
ATOM     12  C   UNL     1     -21.253  16.197 -30.551  1.00  0.00     0.027 A 
ATOM     13  C   UNL     1     -23.579  17.633 -29.968  1.00  0.00     0.006 A 
ATOM     14  C   UNL     1     -22.260  16.325 -31.516  1.00  0.00     0.006 A 
ATOM     15  C   UNL     1     -23.427  17.041 -31.221  1.00  0.00    -0.042 A 
BRANCH  15  16
ATOM     16  C   UNL     1     -24.554  17.185 -32.310  1.00  0.00    -0.013 C 
ATOM     17  C   UNL     1     -24.931  18.655 -32.472  1.00  0.00     0.016 C 
ATOM     18  C   UNL     1     -24.144  16.646 -33.697  1.00  0.00     0.016 C 
ATOM     19  C   UNL     1     -25.768  16.385 -31.828  1.00  0.00     0.016 C 
ENDBRANCH  15  16
ENDBRANCH   2  10
ENDBRANCH   1   2
BRANCH   1  20
ATOM     20  C   UNL     1     -21.124  14.261 -28.145  1.00  0.00     0.003 A 
ATOM     21  C   UNL     1     -22.299  14.033 -27.483  1.00  0.00     0.117 A 
ATOM     22  C   UNL     1     -20.755  13.488 -29.188  1.00  0.00     0.009 A 
ATOM     23  N   UNL     1     -23.101  13.008 -27.850  1.00  0.00    -0.264 NA
ATOM     24  C   UNL     1     -21.576  12.460 -29.574  1.00  0.00     0.020 A 
ATOM     25  C   UNL     1     -22.756  12.234 -28.891  1.00  0.00     0.111 A 
ENDBRANCH   1  20
BRANCH   1  26
ATOM     26  C   UNL     1     -20.529  15.477 -26.193  1.00  0.00     0.248 C 
ATOM     27  O   UNL     1     -21.512  16.064 -25.816  1.00  0.00    -0.272 OA
ATOM     28  N   UNL     1     -19.623  14.805 -25.247  1.00  0.00    -0.351 N 
ATOM     29  H   UNL     1     -18.944  14.383 -25.563  1.00  0.00     0.163 HD
BRANCH  28  30
ATOM     30  C   UNL     1     -19.817  14.821 -23.818  1.00  0.00     0.082 C 
ATOM     31  C   UNL     1     -18.440  14.646 -23.152  1.00  0.00     0.025 C 
ATOM     32  C   UNL     1     -20.718  13.634 -23.488  1.00  0.00     0.025 C 
ATOM     33  C   UNL     1     -18.557  14.305 -21.658  1.00  0.00     0.002 C 
ATOM     34  C   UNL     1     -20.914  13.468 -21.982  1.00  0.00     0.002 C 
ATOM     35  C   UNL     1     -19.584  13.244 -21.323  1.00  0.00     0.000 C 
ENDBRANCH  28  30
ENDBRANCH   1  26
TORSDOF 8

ENDMDL
MODEL 3
REMARK VINA RESULT:    -9.177      2.082      6.774
REMARK INTER + INTRA:         -14.021
REMARK INTER:                 -11.563
REMARK INTRA:                  -2.458
REMARK CONF_INDEPENDENT:        2.386
REMARK UNBOUND:                 2.458
REMARK SMILES CC(C)(C)c1ccc(N(C(=O)c2c[nH]cn2)C(C(=O)NC2CCCCC2)c2cccnc2)cc1
REMARK SMILES IDX 17 1 9 2 10 3 11 4 12 5 16 6 13 7 15 8 14 9 8 10 33 11 7 12
REMARK SMILES IDX 34 13 6 14 5 15 2 16 4 17 3 18 1 19 27 20 32 21 28 22 31 23
REMARK SMILES IDX 29 24 30 25 18 26 19 27 20 28 21 30 26 31 22 32 25 33 23 34
REMARK SMILES IDX 24 35
REMARK H PARENT 20 29
REMARK Flexibility Score: inf
ROOT
ATOM      1  C   UNL     1     -20.955  16.642 -27.992  1.00  0.00     0.212 C 
ENDROOT
BRANCH   1   2
ATOM      2  N   UNL     1     -20.604  15.336 -27.517  1.00  0.00    -0.290 N 
BRANCH   2   3
ATOM      3  C   UNL     1     -20.312  14.268 -28.482  1.00  0.00     0.279 C 
ATOM      4  O   UNL     1     -19.237  14.262 -28.973  1.00  0.00    -0.267 OA
BRANCH   3   5
ATOM      5  C   UNL     1     -21.360  13.193 -28.853  1.00  0.00     0.146 A 
ATOM      6  N   UNL     1     -21.295  12.442 -29.931  1.00  0.00    -0.232 NA
ATOM      7  C   UNL     1     -22.522  12.854 -28.186  1.00  0.00     0.118 A 
ATOM      8  C   UNL     1     -22.378  11.639 -29.946  1.00  0.00     0.197 A 
ATOM      9  N   UNL     1     -23.129  11.897 -28.878  1.00  0.00    -0.350 N 
ENDBRANCH   3   5
ENDBRANCH   2   3
BRANCH   2  10
ATOM     10  C   UNL     1     -20.717  15.108 -26.057  1.00  0.00     0.045 A 
ATOM     11  C   UNL     1     -21.726  15.695 -25.318  1.00  0.00     0.027 A 
ATOM     12  C   UNL     1     -19.757  14.296 -25.445  1.00  0.00     0.027 A 
ATOM     13  C   UNL     1     -21.802  15.459 -23.934  1.00  0.00     0.006 A 
ATOM     14  C   UNL     1     -19.834  14.060 -24.066  1.00  0.00     0.006 A 
ATOM     15  C   UNL     1     -20.855  14.646 -23.310  1.00  0.00    -0.042 A 
BRANCH  15  16
ATOM     16  C   UNL     1     -20.939  14.374 -21.763  1.00  0.00    -0.013 C 
ATOM     17  C   UNL     1     -20.902  15.696 -21.002  1.00  0.00     0.016 C 
ATOM     18  C   UNL     1     -22.216  13.619 -21.338  1.00  0.00     0.016 C 
ATOM     19  C   UNL     1     -19.729  13.517 -21.377  1.00  0.00     0.016 C 
ENDBRANCH  15  16
ENDBRANCH   2  10
ENDBRANCH   1   2
BRANCH   1  20
ATOM     20  C   UNL     1     -21.573  16.759 -29.354  1.00  0.00     0.003 A 
ATOM     21  C   UNL     1     -21.040  17.593 -30.299  1.00  0.00     0.117 A 
ATOM     22  C   UNL     1     -22.689  16.045 -29.610  1.00  0.00     0.009 A 
ATOM     23  N   UNL     1     -21.642  17.734 -31.501  1.00  0.00    -0.264 NA
ATOM     24  C   UNL     1     -23.291  16.172 -30.836  1.00  0.00     0.020 A 
ATOM     25  C   UNL     1     -22.749  17.026 -31.779  1.00  0.00     0.111 A 
ENDBRANCH   1  20
BRANCH   1  26
ATOM     26  C   UNL     1     -19.645  17.465 -28.160  1.00  0.00     0.248 C 
ATOM     27  O   UNL     1     -18.622  16.950 -28.533  1.00  0.00    -0.272 OA
ATOM     28  N   UNL     1     -19.725  18.911 -27.891  1.00  0.00    -0.351 N 
ATOM     29  H   UNL     1     -20.480  19.238 -27.644  1.00  0.00     0.163 HD
BRANCH  28  30
ATOM     30  C   UNL     1     -18.600  19.803 -28.020  1.00  0.00     0.082 C 
ATOM     31  C   UNL     1     -17.890  19.869 -26.655  1.00  0.00     0.025 C 
ATOM     32  C   UNL     1     -19.168  21.172 -28.386  1.00  0.00     0.025 C 
ATOM     33  C   UNL     1     -16.896  21.038 -26.573  1.00  0.00     0.002 C 
ATOM     34  C   UNL     1     -18.082  22.244 -28.444  1.00  0.00     0.002 C 
ATOM     35  C   UNL     1     -17.414  22.358 -27.105  1.00  0.00     0.000 C 
ENDBRANCH  28  30
ENDBRANCH   1  26
TORSDOF 8

ENDMDL
MODEL 4
REMARK VINA RESULT:    -9.118      1.938      3.235
REMARK INTER + INTRA:         -14.237
REMARK INTER:                 -11.505
REMARK INTRA:                  -2.733
REMARK CONF_INDEPENDENT:        2.386
REMARK UNBOUND:                 2.733
REMARK SMILES CC(C)(C)c1ccc(N(C(=O)c2c[nH]cn2)C(C(=O)NC2CCCCC2)c2cccnc2)cc1
REMARK SMILES IDX 17 1 9 2 10 3 11 4 12 5 16 6 13 7 15 8 14 9 8 10 33 11 7 12
REMARK SMILES IDX 34 13 6 14 5 15 2 16 4 17 3 18 1 19 27 20 32 21 28 22 31 23
REMARK SMILES IDX 29 24 30 25 18 26 19 27 20 28 21 30 26 31 22 32 25 33 23 34
REMARK SMILES IDX 24 35
REMARK H PARENT 20 29
REMARK Flexibility Score: inf
ROOT
ATOM      1  C   UNL     1     -20.318  15.629 -27.604  1.00  0.00     0.212 C 
ENDROOT
BRANCH   1   2
ATOM      2  N   UNL     1     -20.866  16.931 -27.841  1.00  0.00    -0.290 N 
BRANCH   2   3
ATOM      3  C   UNL     1     -22.196  17.058 -28.451  1.00  0.00     0.279 C 
ATOM      4  O   UNL     1     -23.080  17.415 -27.753  1.00  0.00    -0.267 OA
BRANCH   3   5
ATOM      5  C   UNL     1     -22.444  16.736 -29.943  1.00  0.00     0.146 A 
ATOM      6  N   UNL     1     -21.937  17.427 -30.941  1.00  0.00    -0.232 NA
ATOM      7  C   UNL     1     -23.231  15.740 -30.492  1.00  0.00     0.118 A 
ATOM      8  C   UNL     1     -22.377  16.883 -32.093  1.00  0.00     0.197 A 
ATOM      9  N   UNL     1     -23.173  15.853 -31.814  1.00  0.00    -0.350 N 
ENDBRANCH   3   5
ENDBRANCH   2   3
BRANCH   2  10
ATOM     10  C   UNL     1     -19.969  18.085 -27.595  1.00  0.00     0.045 A 
ATOM     11  C   UNL     1     -18.702  18.134 -28.144  1.00  0.00     0.027 A 
ATOM     12  C   UNL     1     -20.436  19.114 -26.772  1.00  0.00     0.027 A 
ATOM     13  C   UNL     1     -17.876  19.243 -27.887  1.00  0.00     0.006 A 
ATOM     14  C   UNL     1     -19.613  20.219 -26.517  1.00  0.00     0.006 A 
ATOM     15  C   UNL     1     -18.330  20.280 -27.073  1.00  0.00    -0.042 A 
BRANCH  15  16
ATOM     16  C   UNL     1     -17.412  21.526 -26.788  1.00  0.00    -0.013 C 
ATOM     17  C   UNL     1     -18.106  22.466 -25.806  1.00  0.00     0.016 C 
ATOM     18  C   UNL     1     -16.035  21.155 -26.196  1.00  0.00     0.016 C 
ATOM     19  C   UNL     1     -17.179  22.244 -28.121  1.00  0.00     0.016 C 
ENDBRANCH  15  16
ENDBRANCH   2  10
ENDBRANCH   1   2
BRANCH   1  20
ATOM     20  C   UNL     1     -21.075  14.437 -28.111  1.00  0.00     0.003 A 
ATOM     21  C   UNL     1     -22.187  13.979 -27.457  1.00  0.00     0.117 A 
ATOM     22  C   UNL     1     -20.609  13.808 -29.210  1.00  0.00     0.009 A 
ATOM     23  N   UNL     1     -22.823  12.868 -27.890  1.00  0.00    -0.264 NA
ATOM     24  C   UNL     1     -21.265  12.690 -29.662  1.00  0.00     0.020 A 
ATOM     25  C   UNL     1     -22.380  12.232 -28.987  1.00  0.00     0.111 A 
ENDBRANCH   1  20
BRANCH   1  26
ATOM     26  C   UNL     1     -20.311  15.378 -26.068  1.00  0.00     0.248 C 
ATOM     27  O   UNL     1     -20.750  16.192 -25.296  1.00  0.00    -0.272 OA
ATOM     28  N   UNL     1     -19.792  14.079 -25.605  1.00  0.00    -0.351 N 
ATOM     29  H   UNL     1     -19.506  13.522 -26.193  1.00  0.00     0.163 HD
BRANCH  28  30
ATOM     30  C   UNL     1     -19.739  13.699 -24.215  1.00  0.00     0.082 C 
ATOM     31  C   UNL     1     -21.115  13.993 -23.592  1.00  0.00     0.025 C 
ATOM     32  C   UNL     1     -18.667  14.570 -23.565  1.00  0.00     0.025 C 
ATOM     33  C   UNL     1     -21.078  13.953 -22.056  1.00  0.00     0.002 C 
ATOM     34  C   UNL     1     -18.586  14.344 -22.057  1.00  0.00     0.002 C 
ATOM     35  C   UNL     1     -19.907  14.677 -21.426  1.00  0.00     0.000 C 
ENDBRANCH  28  30
ENDBRANCH   1  26
TORSDOF 8

ENDMDL
MODEL 5
REMARK VINA RESULT:    -9.095      1.186      1.521
REMARK INTER + INTRA:         -14.709
REMARK INTER:                 -11.482
REMARK INTRA:                  -3.228
REMARK CONF_INDEPENDENT:        2.386
REMARK UNBOUND:                 3.228
REMARK SMILES CC(C)(C)c1ccc(N(C(=O)c2c[nH]cn2)C(C(=O)NC2CCCCC2)c2cccnc2)cc1
REMARK SMILES IDX 17 1 9 2 10 3 11 4 12 5 16 6 13 7 15 8 14 9 8 10 33 11 7 12
REMARK SMILES IDX 34 13 6 14 5 15 2 16 4 17 3 18 1 19 27 20 32 21 28 22 31 23
REMARK SMILES IDX 29 24 30 25 18 26 19 27 20 28 21 30 26 31 22 32 25 33 23 34
REMARK SMILES IDX 24 35
REMARK H PARENT 20 29
REMARK Flexibility Score: inf
ROOT
ATOM      1  C   UNL     1     -20.471  15.078 -27.443  1.00  0.00     0.212 C 
ENDROOT
BRANCH   1   2
ATOM      2  N   UNL     1     -21.025  16.244 -26.819  1.00  0.00    -0.290 N 
BRANCH   2   3
ATOM      3  C   UNL     1     -22.397  16.204 -26.299  1.00  0.00     0.279 C 
ATOM      4  O   UNL     1     -22.692  15.280 -25.623  1.00  0.00    -0.267 OA
BRANCH   3   5
ATOM      5  C   UNL     1     -23.425  17.314 -26.618  1.00  0.00     0.146 A 
ATOM      6  N   UNL     1     -23.443  18.001 -27.740  1.00  0.00    -0.232 NA
ATOM      7  C   UNL     1     -24.444  17.802 -25.822  1.00  0.00     0.118 A 
ATOM      8  C   UNL     1     -24.451  18.893 -27.667  1.00  0.00     0.197 A 
ATOM      9  N   UNL     1     -25.058  18.772 -26.489  1.00  0.00    -0.350 N 
ENDBRANCH   3   5
ENDBRANCH   2   3
BRANCH   2  10
ATOM     10  C   UNL     1     -20.214  17.482 -26.886  1.00  0.00     0.045 A 
ATOM     11  C   UNL     1     -19.465  17.786 -28.007  1.00  0.00     0.027 A 
ATOM     12  C   UNL     1     -20.213  18.326 -25.771  1.00  0.00     0.027 A 
ATOM     13  C   UNL     1     -18.705  18.969 -28.036  1.00  0.00     0.006 A 
ATOM     14  C   UNL     1     -19.456  19.504 -25.800  1.00  0.00     0.006 A 
ATOM     15  C   UNL     1     -18.698  19.823 -26.934  1.00  0.00    -0.042 A 
BRANCH  15  16
ATOM     16  C   UNL     1     -17.854  21.150 -26.963  1.00  0.00    -0.013 C 
ATOM     17  C   UNL     1     -18.079  21.877 -28.286  1.00  0.00     0.016 C 
ATOM     18  C   UNL     1     -18.202  22.128 -25.821  1.00  0.00     0.016 C 
ATOM     19  C   UNL     1     -16.378  20.764 -26.826  1.00  0.00     0.016 C 
ENDBRANCH  15  16
ENDBRANCH   2  10
ENDBRANCH   1   2
BRANCH   1  20
ATOM     20  C   UNL     1     -21.376  14.223 -28.279  1.00  0.00     0.003 A 
ATOM     21  C   UNL     1     -22.143  13.244 -27.710  1.00  0.00     0.117 A 
ATOM     22  C   UNL     1     -21.386  14.424 -29.614  1.00  0.00     0.009 A 
ATOM     23  N   UNL     1     -22.908  12.441 -28.484  1.00  0.00    -0.264 NA
ATOM     24  C   UNL     1     -22.176  13.622 -30.399  1.00  0.00     0.020 A 
ATOM     25  C   UNL     1     -22.938  12.630 -29.813  1.00  0.00     0.111 A 
ENDBRANCH   1  20
BRANCH   1  26
ATOM     26  C   UNL     1     -20.037  14.089 -26.322  1.00  0.00     0.248 C 
ATOM     27  O   UNL     1     -19.474  13.056 -26.579  1.00  0.00    -0.272 OA
ATOM     28  N   UNL     1     -20.300  14.498 -24.932  1.00  0.00    -0.351 N 
ATOM     29  H   UNL     1     -20.688  15.252 -24.795  1.00  0.00     0.163 HD
BRANCH  28  30
ATOM     30  C   UNL     1     -19.940  13.694 -23.789  1.00  0.00     0.082 C 
ATOM     31  C   UNL     1     -21.096  13.770 -22.776  1.00  0.00     0.025 C 
ATOM     32  C   UNL     1     -18.678  14.318 -23.199  1.00  0.00     0.025 C 
ATOM     33  C   UNL     1     -20.689  13.243 -21.390  1.00  0.00     0.002 C 
ATOM     34  C   UNL     1     -18.250  13.624 -21.907  1.00  0.00     0.002 C 
ATOM     35  C   UNL     1     -19.347  13.734 -20.889  1.00  0.00     0.000 C 
ENDBRANCH  28  30
ENDBRANCH   1  26
TORSDOF 8

ENDMDL
MODEL 6
REMARK VINA RESULT:    -8.973      3.195      7.203
REMARK INTER + INTRA:         -14.611
REMARK INTER:                 -11.360
REMARK INTRA:                  -3.251
REMARK CONF_INDEPENDENT:        2.386
REMARK UNBOUND:                 3.251
REMARK SMILES CC(C)(C)c1ccc(N(C(=O)c2c[nH]cn2)C(C(=O)NC2CCCCC2)c2cccnc2)cc1
REMARK SMILES IDX 17 1 9 2 10 3 11 4 12 5 16 6 13 7 15 8 14 9 8 10 33 11 7 12
REMARK SMILES IDX 34 13 6 14 5 15 2 16 4 17 3 18 1 19 27 20 32 21 28 22 31 23
REMARK SMILES IDX 29 24 30 25 18 26 19 27 20 28 21 30 26 31 22 32 25 33 23 34
REMARK SMILES IDX 24 35
REMARK H PARENT 20 29
REMARK Flexibility Score: inf
ROOT
ATOM      1  C   UNL     1     -19.661  20.411 -27.199  1.00  0.00     0.212 C 
ENDROOT
BRANCH   1   2
ATOM      2  N   UNL     1     -19.848  19.838 -28.499  1.00  0.00    -0.290 N 
BRANCH   2   3
ATOM      3  C   UNL     1     -19.978  20.720 -29.667  1.00  0.00     0.279 C 
ATOM      4  O   UNL     1     -19.753  21.868 -29.505  1.00  0.00    -0.267 OA
BRANCH   3   5
ATOM      5  C   UNL     1     -20.396  20.181 -31.055  1.00  0.00     0.146 A 
ATOM      6  N   UNL     1     -21.097  19.083 -31.239  1.00  0.00    -0.232 NA
ATOM      7  C   UNL     1     -20.102  20.693 -32.304  1.00  0.00     0.118 A 
ATOM      8  C   UNL     1     -21.256  18.906 -32.566  1.00  0.00     0.197 A 
ATOM      9  N   UNL     1     -20.641  19.891 -33.215  1.00  0.00    -0.350 N 
ENDBRANCH   3   5
ENDBRANCH   2   3
BRANCH   2  10
ATOM     10  C   UNL     1     -20.061  18.373 -28.556  1.00  0.00     0.045 A 
ATOM     11  C   UNL     1     -19.003  17.504 -28.740  1.00  0.00     0.027 A 
ATOM     12  C   UNL     1     -21.370  17.897 -28.440  1.00  0.00     0.027 A 
ATOM     13  C   UNL     1     -19.242  16.119 -28.792  1.00  0.00     0.006 A 
ATOM     14  C   UNL     1     -21.608  16.517 -28.490  1.00  0.00     0.006 A 
ATOM     15  C   UNL     1     -20.541  15.628 -28.671  1.00  0.00    -0.042 A 
BRANCH  15  16
ATOM     16  C   UNL     1     -20.813  14.079 -28.722  1.00  0.00    -0.013 C 
ATOM     17  C   UNL     1     -21.565  13.644 -27.467  1.00  0.00     0.016 C 
ATOM     18  C   UNL     1     -21.643  13.638 -29.947  1.00  0.00     0.016 C 
ATOM     19  C   UNL     1     -19.456  13.372 -28.787  1.00  0.00     0.016 C 
ENDBRANCH  15  16
ENDBRANCH   2  10
ENDBRANCH   1   2
BRANCH   1  20
ATOM     20  C   UNL     1     -18.456  21.273 -26.970  1.00  0.00     0.003 A 
ATOM     21  C   UNL     1     -17.311  21.091 -27.697  1.00  0.00     0.117 A 
ATOM     22  C   UNL     1     -18.520  22.212 -26.002  1.00  0.00     0.009 A 
ATOM     23  N   UNL     1     -16.212  21.835 -27.437  1.00  0.00    -0.264 NA
ATOM     24  C   UNL     1     -17.412  22.981 -25.750  1.00  0.00     0.020 A 
ATOM     25  C   UNL     1     -16.259  22.780 -26.484  1.00  0.00     0.111 A 
ENDBRANCH   1  20
BRANCH   1  26
ATOM     26  C   UNL     1     -19.425  19.251 -26.188  1.00  0.00     0.248 C 
ATOM     27  O   UNL     1     -18.317  18.948 -25.827  1.00  0.00    -0.272 OA
ATOM     28  N   UNL     1     -20.621  18.575 -25.656  1.00  0.00    -0.351 N 
ATOM     29  H   UNL     1     -21.392  18.837 -25.929  1.00  0.00     0.163 HD
BRANCH  28  30
ATOM     30  C   UNL     1     -20.560  17.496 -24.701  1.00  0.00     0.082 C 
ATOM     31  C   UNL     1     -19.429  16.546 -25.133  1.00  0.00     0.025 C 
ATOM     32  C   UNL     1     -21.906  16.779 -24.767  1.00  0.00     0.025 C 
ATOM     33  C   UNL     1     -19.492  15.196 -24.401  1.00  0.00     0.002 C 
ATOM     34  C   UNL     1     -21.936  15.538 -23.878  1.00  0.00     0.002 C 
ATOM     35  C   UNL     1     -20.871  14.576 -24.320  1.00  0.00     0.000 C 
ENDBRANCH  28  30
ENDBRANCH   1  26
TORSDOF 8

ENDMDL
MODEL 7
REMARK VINA RESULT:    -8.399      2.561      5.706
REMARK INTER + INTRA:         -14.017
REMARK INTER:                 -10.785
REMARK INTRA:                  -3.232
REMARK CONF_INDEPENDENT:        2.386
REMARK UNBOUND:                 3.232
REMARK SMILES CC(C)(C)c1ccc(N(C(=O)c2c[nH]cn2)C(C(=O)NC2CCCCC2)c2cccnc2)cc1
REMARK SMILES IDX 17 1 9 2 10 3 11 4 12 5 16 6 13 7 15 8 14 9 8 10 33 11 7 12
REMARK SMILES IDX 34 13 6 14 5 15 2 16 4 17 3 18 1 19 27 20 32 21 28 22 31 23
REMARK SMILES IDX 29 24 30 25 18 26 19 27 20 28 21 30 26 31 22 32 25 33 23 34
REMARK SMILES IDX 24 35
REMARK H PARENT 20 29
REMARK Flexibility Score: inf
ROOT
ATOM      1  C   UNL     1     -20.918  15.241 -24.354  1.00  0.00     0.212 C 
ENDROOT
BRANCH   1   2
ATOM      2  N   UNL     1     -20.622  16.540 -24.881  1.00  0.00    -0.290 N 
BRANCH   2   3
ATOM      3  C   UNL     1     -20.075  17.575 -23.993  1.00  0.00     0.279 C 
ATOM      4  O   UNL     1     -19.206  18.251 -24.423  1.00  0.00    -0.267 OA
BRANCH   3   5
ATOM      5  C   UNL     1     -20.600  17.778 -22.554  1.00  0.00     0.146 A 
ATOM      6  N   UNL     1     -21.647  17.155 -22.057  1.00  0.00    -0.232 NA
ATOM      7  C   UNL     1     -20.127  18.629 -21.573  1.00  0.00     0.118 A 
ATOM      8  C   UNL     1     -21.830  17.587 -20.793  1.00  0.00     0.197 A 
ATOM      9  N   UNL     1     -20.900  18.493 -20.502  1.00  0.00    -0.350 N 
ENDBRANCH   3   5
ENDBRANCH   2   3
BRANCH   2  10
ATOM     10  C   UNL     1     -21.045  16.804 -26.276  1.00  0.00     0.045 A 
ATOM     11  C   UNL     1     -22.363  17.088 -26.581  1.00  0.00     0.027 A 
ATOM     12  C   UNL     1     -20.075  16.735 -27.280  1.00  0.00     0.027 A 
ATOM     13  C   UNL     1     -22.731  17.331 -27.916  1.00  0.00     0.006 A 
ATOM     14  C   UNL     1     -20.441  16.977 -28.610  1.00  0.00     0.006 A 
ATOM     15  C   UNL     1     -21.773  17.272 -28.928  1.00  0.00    -0.042 A 
BRANCH  15  16
ATOM     16  C   UNL     1     -22.178  17.548 -30.423  1.00  0.00    -0.013 C 
ATOM     17  C   UNL     1     -23.602  18.093 -30.480  1.00  0.00     0.016 C 
ATOM     18  C   UNL     1     -21.255  18.559 -31.135  1.00  0.00     0.016 C 
ATOM     19  C   UNL     1     -22.099  16.217 -31.178  1.00  0.00     0.016 C 
ENDBRANCH  15  16
ENDBRANCH   2  10
ENDBRANCH   1   2
BRANCH   1  20
ATOM     20  C   UNL     1     -20.030  14.692 -23.277  1.00  0.00     0.003 A 
ATOM     21  C   UNL     1     -18.667  14.778 -23.376  1.00  0.00     0.117 A 
ATOM     22  C   UNL     1     -20.611  14.079 -22.224  1.00  0.00     0.009 A 
ATOM     23  N   UNL     1     -17.879  14.225 -22.428  1.00  0.00    -0.264 NA
ATOM     24  C   UNL     1     -19.812  13.534 -21.251  1.00  0.00     0.020 A 
ATOM     25  C   UNL     1     -18.438  13.619 -21.368  1.00  0.00     0.111 A 
ENDBRANCH   1  20
BRANCH   1  26
ATOM     26  C   UNL     1     -20.724  14.200 -25.495  1.00  0.00     0.248 C 
ATOM     27  O   UNL     1     -19.761  13.477 -25.528  1.00  0.00    -0.272 OA
ATOM     28  N   UNL     1     -21.795  14.104 -26.501  1.00  0.00    -0.351 N 
ATOM     29  H   UNL     1     -22.472  14.628 -26.427  1.00  0.00     0.163 HD
BRANCH  28  30
ATOM     30  C   UNL     1     -21.763  13.176 -27.605  1.00  0.00     0.082 C 
ATOM     31  C   UNL     1     -20.576  13.557 -28.508  1.00  0.00     0.025 C 
ATOM     32  C   UNL     1     -23.078  13.350 -28.359  1.00  0.00     0.025 C 
ATOM     33  C   UNL     1     -20.644  12.867 -29.879  1.00  0.00     0.002 C 
ATOM     34  C   UNL     1     -23.126  12.499 -29.626  1.00  0.00     0.002 C 
ATOM     35  C   UNL     1     -22.005  12.894 -30.542  1.00  0.00     0.000 C 
ENDBRANCH  28  30
ENDBRANCH   1  26
TORSDOF 8

ENDMDL
MODEL 8
REMARK VINA RESULT:    -8.284      3.666      8.437
REMARK INTER + INTRA:         -13.939
REMARK INTER:                 -10.671
REMARK INTRA:                  -3.268
REMARK CONF_INDEPENDENT:        2.386
REMARK UNBOUND:                 3.268
REMARK SMILES CC(C)(C)c1ccc(N(C(=O)c2c[nH]cn2)C(C(=O)NC2CCCCC2)c2cccnc2)cc1
REMARK SMILES IDX 17 1 9 2 10 3 11 4 12 5 16 6 13 7 15 8 14 9 8 10 33 11 7 12
REMARK SMILES IDX 34 13 6 14 5 15 2 16 4 17 3 18 1 19 27 20 32 21 28 22 31 23
REMARK SMILES IDX 29 24 30 25 18 26 19 27 20 28 21 30 26 31 22 32 25 33 23 34
REMARK SMILES IDX 24 35
REMARK H PARENT 20 29
REMARK Flexibility Score: inf
ROOT
ATOM      1  C   UNL     1     -18.328  20.564 -27.573  1.00  0.00     0.212 C 
ENDROOT
BRANCH   1   2
ATOM      2  N   UNL     1     -19.456  19.834 -27.075  1.00  0.00    -0.290 N 
BRANCH   2   3
ATOM      3  C   UNL     1     -20.412  20.500 -26.180  1.00  0.00     0.279 C 
ATOM      4  O   UNL     1     -21.284  21.118 -26.684  1.00  0.00    -0.267 OA
BRANCH   3   5
ATOM      5  C   UNL     1     -20.290  20.409 -24.641  1.00  0.00     0.146 A 
ATOM      6  N   UNL     1     -19.630  19.463 -24.009  1.00  0.00    -0.232 NA
ATOM      7  C   UNL     1     -20.849  21.231 -23.681  1.00  0.00     0.118 A 
ATOM      8  C   UNL     1     -19.753  19.681 -22.685  1.00  0.00     0.197 A 
ATOM      9  N   UNL     1     -20.504  20.762 -22.487  1.00  0.00    -0.350 N 
ENDBRANCH   3   5
ENDBRANCH   2   3
BRANCH   2  10
ATOM     10  C   UNL     1     -19.496  18.384 -27.376  1.00  0.00     0.045 A 
ATOM     11  C   UNL     1     -19.000  17.888 -28.566  1.00  0.00     0.027 A 
ATOM     12  C   UNL     1     -20.071  17.534 -26.427  1.00  0.00     0.027 A 
ATOM     13  C   UNL     1     -19.055  16.505 -28.820  1.00  0.00     0.006 A 
ATOM     14  C   UNL     1     -20.126  16.157 -26.680  1.00  0.00     0.006 A 
ATOM     15  C   UNL     1     -19.621  15.644 -27.880  1.00  0.00    -0.042 A 
BRANCH  15  16
ATOM     16  C   UNL     1     -19.680  14.096 -28.157  1.00  0.00    -0.013 C 
ATOM     17  C   UNL     1     -18.385  13.639 -28.822  1.00  0.00     0.016 C 
ATOM     18  C   UNL     1     -19.882  13.249 -26.883  1.00  0.00     0.016 C 
ATOM     19  C   UNL     1     -20.866  13.838 -29.093  1.00  0.00     0.016 C 
ENDBRANCH  15  16
ENDBRANCH   2  10
ENDBRANCH   1   2
BRANCH   1  20
ATOM     20  C   UNL     1     -17.662  21.551 -26.660  1.00  0.00     0.003 A 
ATOM     21  C   UNL     1     -18.324  22.666 -26.225  1.00  0.00     0.117 A 
ATOM     22  C   UNL     1     -16.378  21.325 -26.309  1.00  0.00     0.009 A 
ATOM     23  N   UNL     1     -17.691  23.577 -25.453  1.00  0.00    -0.264 NA
ATOM     24  C   UNL     1     -15.740  22.240 -25.509  1.00  0.00     0.020 A 
ATOM     25  C   UNL     1     -16.417  23.367 -25.085  1.00  0.00     0.111 A 
ENDBRANCH   1  20
BRANCH   1  26
ATOM     26  C   UNL     1     -18.816  21.478 -28.735  1.00  0.00     0.248 C 
ATOM     27  O   UNL     1     -18.069  22.243 -29.289  1.00  0.00    -0.272 OA
ATOM     28  N   UNL     1     -20.218  21.326 -29.160  1.00  0.00    -0.351 N 
ATOM     29  H   UNL     1     -20.710  20.755 -28.747  1.00  0.00     0.163 HD
BRANCH  28  30
ATOM     30  C   UNL     1     -20.807  22.091 -30.232  1.00  0.00     0.082 C 
ATOM     31  C   UNL     1     -22.335  21.922 -30.148  1.00  0.00     0.025 C 
ATOM     32  C   UNL     1     -20.281  21.492 -31.533  1.00  0.00     0.025 C 
ATOM     33  C   UNL     1     -23.043  22.401 -31.425  1.00  0.00     0.002 C 
ATOM     34  C   UNL     1     -20.918  22.143 -32.759  1.00  0.00     0.002 C 
ATOM     35  C   UNL     1     -22.405  21.943 -32.720  1.00  0.00     0.000 C 
ENDBRANCH  28  30
ENDBRANCH   1  26
TORSDOF 8

ENDMDL
MODEL 9
REMARK VINA RESULT:    -7.642      2.413      7.331
REMARK INTER + INTRA:         -13.978
REMARK INTER:                 -10.028
REMARK INTRA:                  -3.950
REMARK CONF_INDEPENDENT:        2.386
REMARK UNBOUND:                 3.950
REMARK SMILES CC(C)(C)c1ccc(N(C(=O)c2c[nH]cn2)C(C(=O)NC2CCCCC2)c2cccnc2)cc1
REMARK SMILES IDX 17 1 9 2 10 3 11 4 12 5 16 6 13 7 15 8 14 9 8 10 33 11 7 12
REMARK SMILES IDX 34 13 6 14 5 15 2 16 4 17 3 18 1 19 27 20 32 21 28 22 31 23
REMARK SMILES IDX 29 24 30 25 18 26 19 27 20 28 21 30 26 31 22 32 25 33 23 34
REMARK SMILES IDX 24 35
REMARK H PARENT 20 29
REMARK Flexibility Score: inf
ROOT
ATOM      1  C   UNL     1     -19.643  16.579 -28.068  1.00  0.00     0.212 C 
ENDROOT
BRANCH   1   2
ATOM      2  N   UNL     1     -19.888  15.271 -27.535  1.00  0.00    -0.290 N 
BRANCH   2   3
ATOM      3  C   UNL     1     -19.819  14.103 -28.422  1.00  0.00     0.279 C 
ATOM      4  O   UNL     1     -18.748  13.768 -28.792  1.00  0.00    -0.267 OA
BRANCH   3   5
ATOM      5  C   UNL     1     -21.087  13.337 -28.865  1.00  0.00     0.146 A 
ATOM      6  N   UNL     1     -22.230  13.364 -28.213  1.00  0.00    -0.232 NA
ATOM      7  C   UNL     1     -21.253  12.494 -29.947  1.00  0.00     0.118 A 
ATOM      8  C   UNL     1     -23.102  12.570 -28.867  1.00  0.00     0.197 A 
ATOM      9  N   UNL     1     -22.499  12.035 -29.925  1.00  0.00    -0.350 N 
ENDBRANCH   3   5
ENDBRANCH   2   3
BRANCH   2  10
ATOM     10  C   UNL     1     -20.361  15.202 -26.132  1.00  0.00     0.045 A 
ATOM     11  C   UNL     1     -21.706  15.276 -25.827  1.00  0.00     0.027 A 
ATOM     12  C   UNL     1     -19.401  15.083 -25.123  1.00  0.00     0.027 A 
ATOM     13  C   UNL     1     -22.119  15.210 -24.484  1.00  0.00     0.006 A 
ATOM     14  C   UNL     1     -19.812  15.017 -23.785  1.00  0.00     0.006 A 
ATOM     15  C   UNL     1     -21.174  15.085 -23.467  1.00  0.00    -0.042 A 
BRANCH  15  16
ATOM     16  C   UNL     1     -21.631  15.006 -21.963  1.00  0.00    -0.013 C 
ATOM     17  C   UNL     1     -22.907  15.820 -21.767  1.00  0.00     0.016 C 
ATOM     18  C   UNL     1     -21.909  13.567 -21.478  1.00  0.00     0.016 C 
ATOM     19  C   UNL     1     -20.504  15.588 -21.105  1.00  0.00     0.016 C 
ENDBRANCH  15  16
ENDBRANCH   2  10
ENDBRANCH   1   2
BRANCH   1  20
ATOM     20  C   UNL     1     -19.815  17.759 -27.159  1.00  0.00     0.003 A 
ATOM     21  C   UNL     1     -18.813  18.147 -26.311  1.00  0.00     0.117 A 
ATOM     22  C   UNL     1     -20.998  18.407 -27.175  1.00  0.00     0.009 A 
ATOM     23  N   UNL     1     -19.004  19.175 -25.454  1.00  0.00    -0.264 NA
ATOM     24  C   UNL     1     -21.188  19.463 -26.319  1.00  0.00     0.020 A 
ATOM     25  C   UNL     1     -20.171  19.839 -25.461  1.00  0.00     0.111 A 
ENDBRANCH   1  20
BRANCH   1  26
ATOM     26  C   UNL     1     -20.709  16.861 -29.168  1.00  0.00     0.248 C 
ATOM     27  O   UNL     1     -20.501  17.646 -30.057  1.00  0.00    -0.272 OA
ATOM     28  N   UNL     1     -21.960  16.087 -29.100  1.00  0.00    -0.351 N 
ATOM     29  H   UNL     1     -22.057  15.524 -28.457  1.00  0.00     0.163 HD
BRANCH  28  30
ATOM     30  C   UNL     1     -23.030  16.227 -30.057  1.00  0.00     0.082 C 
ATOM     31  C   UNL     1     -22.486  15.812 -31.436  1.00  0.00     0.025 C 
ATOM     32  C   UNL     1     -23.417  17.703 -30.064  1.00  0.00     0.025 C 
ATOM     33  C   UNL     1     -23.418  16.242 -32.580  1.00  0.00     0.002 C 
ATOM     34  C   UNL     1     -24.473  18.011 -31.124  1.00  0.00     0.002 C 
ATOM     35  C   UNL     1     -23.939  17.660 -32.483  1.00  0.00     0.000 C 
ENDBRANCH  28  30
ENDBRANCH   1  26
TORSDOF 8

ENDMDL
