MODEL 1
REMARK VINA RESULT:    -9.331      0.000      0.000
REMARK INTER + INTRA:         -15.002
REMARK INTER:                 -11.718
REMARK INTRA:                  -3.284
REMARK CONF_INDEPENDENT:        2.386
REMARK UNBOUND:                 3.284
REMARK SMILES CC(C)(C)c1ccc(N(C(=O)c2c[nH]cn2)C(C(=O)NC2CCCCC2)c2cccnc2)cc1
REMARK SMILES IDX 17 1 9 2 10 3 11 4 12 5 16 6 13 7 15 8 14 9 8 10 33 11 7 12
REMARK SMILES IDX 34 13 6 14 5 15 2 16 4 17 3 18 1 19 27 20 32 21 28 22 31 23
REMARK SMILES IDX 29 24 30 25 18 26 19 27 20 28 21 30 26 31 22 32 25 33 23 34
REMARK SMILES IDX 24 35
REMARK H PARENT 20 29
REMARK Flexibility Score: inf
ROOT
ATOM      1  C   UNL     1     -20.534  15.135 -27.433  1.00  0.00     0.212 C 
ENDROOT
BRANCH   1   2
ATOM      2  N   UNL     1     -21.059  16.309 -26.800  1.00  0.00    -0.290 N 
BRANCH   2   3
ATOM      3  C   UNL     1     -22.407  16.276 -26.217  1.00  0.00     0.279 C 
ATOM      4  O   UNL     1     -23.268  15.803 -26.873  1.00  0.00    -0.267 OA
BRANCH   3   5
ATOM      5  C   UNL     1     -22.701  16.838 -24.807  1.00  0.00     0.146 A 
ATOM      6  N   UNL     1     -22.539  16.157 -23.693  1.00  0.00    -0.232 NA
ATOM      7  C   UNL     1     -23.198  18.080 -24.459  1.00  0.00     0.118 A 
ATOM      8  C   UNL     1     -22.911  16.945 -22.664  1.00  0.00     0.197 A 
ATOM      9  N   UNL     1     -23.318  18.120 -23.137  1.00  0.00    -0.350 N 
ENDBRANCH   3   5
ENDBRANCH   2   3
BRANCH   2  10
ATOM     10  C   UNL     1     -20.252  17.546 -26.920  1.00  0.00     0.045 A 
ATOM     11  C   UNL     1     -19.968  18.095 -28.156  1.00  0.00     0.027 A 
ATOM     12  C   UNL     1     -19.769  18.129 -25.746  1.00  0.00     0.027 A 
ATOM     13  C   UNL     1     -19.197  19.269 -28.233  1.00  0.00     0.006 A 
ATOM     14  C   UNL     1     -19.002  19.299 -25.823  1.00  0.00     0.006 A 
ATOM     15  C   UNL     1     -18.712  19.866 -27.070  1.00  0.00    -0.042 A 
BRANCH  15  16
ATOM     16  C   UNL     1     -17.855  21.183 -27.151  1.00  0.00    -0.013 C 
ATOM     17  C   UNL     1     -18.180  21.933 -28.440  1.00  0.00     0.016 C 
ATOM     18  C   UNL     1     -18.091  22.147 -25.970  1.00  0.00     0.016 C 
ATOM     19  C   UNL     1     -16.378  20.775 -27.145  1.00  0.00     0.016 C 
ENDBRANCH  15  16
ENDBRANCH   2  10
ENDBRANCH   1   2
BRANCH   1  20
ATOM     20  C   UNL     1     -21.468  14.290 -28.248  1.00  0.00     0.003 A 
ATOM     21  C   UNL     1     -22.143  13.242 -27.685  1.00  0.00     0.117 A 
ATOM     22  C   UNL     1     -21.597  14.572 -29.562  1.00  0.00     0.009 A 
ATOM     23  N   UNL     1     -22.934  12.452 -28.445  1.00  0.00    -0.264 NA
ATOM     24  C   UNL     1     -22.414  13.783 -30.332  1.00  0.00     0.020 A 
ATOM     25  C   UNL     1     -23.082  12.721 -29.753  1.00  0.00     0.111 A 
ENDBRANCH   1  20
BRANCH   1  26
ATOM     26  C   UNL     1     -20.090  14.142 -26.319  1.00  0.00     0.248 C 
ATOM     27  O   UNL     1     -19.489  13.131 -26.581  1.00  0.00    -0.272 OA
ATOM     28  N   UNL     1     -20.393  14.519 -24.928  1.00  0.00    -0.351 N 
ATOM     29  H   UNL     1     -20.808  15.259 -24.787  1.00  0.00     0.163 HD
BRANCH  28  30
ATOM     30  C   UNL     1     -20.029  13.709 -23.791  1.00  0.00     0.082 C 
ATOM     31  C   UNL     1     -21.182  13.778 -22.774  1.00  0.00     0.025 C 
ATOM     32  C   UNL     1     -18.766  14.330 -23.200  1.00  0.00     0.025 C 
ATOM     33  C   UNL     1     -20.771  13.244 -21.393  1.00  0.00     0.002 C 
ATOM     34  C   UNL     1     -18.334  13.629 -21.914  1.00  0.00     0.002 C 
ATOM     35  C   UNL     1     -19.428  13.732 -20.892  1.00  0.00     0.000 C 
ENDBRANCH  28  30
ENDBRANCH   1  26
TORSDOF 8

ENDMDL
MODEL 2
REMARK VINA RESULT:    -9.258      2.592      4.694
REMARK INTER + INTRA:         -14.341
REMARK INTER:                 -11.645
REMARK INTRA:                  -2.696
REMARK CONF_INDEPENDENT:        2.386
REMARK UNBOUND:                 2.696
REMARK SMILES CC(C)(C)c1ccc(N(C(=O)c2c[nH]cn2)C(C(=O)NC2CCCCC2)c2cccnc2)cc1
REMARK SMILES IDX 17 1 9 2 10 3 11 4 12 5 16 6 13 7 15 8 14 9 8 10 33 11 7 12
REMARK SMILES IDX 34 13 6 14 5 15 2 16 4 17 3 18 1 19 27 20 32 21 28 22 31 23
REMARK SMILES IDX 29 24 30 25 18 26 19 27 20 28 21 30 26 31 22 32 25 33 23 34
REMARK SMILES IDX 24 35
REMARK H PARENT 20 29
REMARK Flexibility Score: inf
ROOT
ATOM      1  C   UNL     1     -20.154  15.395 -27.722  1.00  0.00     0.212 C 
ENDROOT
BRANCH   1   2
ATOM      2  N   UNL     1     -20.298  16.686 -28.325  1.00  0.00    -0.290 N 
BRANCH   2   3
ATOM      3  C   UNL     1     -19.480  17.807 -27.844  1.00  0.00     0.279 C 
ATOM      4  O   UNL     1     -18.617  18.189 -28.554  1.00  0.00    -0.267 OA
BRANCH   3   5
ATOM      5  C   UNL     1     -19.724  18.464 -26.466  1.00  0.00     0.146 A 
ATOM      6  N   UNL     1     -19.004  18.215 -25.393  1.00  0.00    -0.232 NA
ATOM      7  C   UNL     1     -20.710  19.360 -26.099  1.00  0.00     0.118 A 
ATOM      8  C   UNL     1     -19.508  18.940 -24.374  1.00  0.00     0.197 A 
ATOM      9  N   UNL     1     -20.556  19.637 -24.810  1.00  0.00    -0.350 N 
ENDBRANCH   3   5
ENDBRANCH   2   3
BRANCH   2  10
ATOM     10  C   UNL     1     -21.399  16.843 -29.305  1.00  0.00     0.045 A 
ATOM     11  C   UNL     1     -22.544  17.547 -28.986  1.00  0.00     0.027 A 
ATOM     12  C   UNL     1     -21.253  16.237 -30.557  1.00  0.00     0.027 A 
ATOM     13  C   UNL     1     -23.571  17.674 -29.939  1.00  0.00     0.006 A 
ATOM     14  C   UNL     1     -22.276  16.364 -31.506  1.00  0.00     0.006 A 
ATOM     15  C   UNL     1     -23.438  17.080 -31.194  1.00  0.00    -0.042 A 
BRANCH  15  16
ATOM     16  C   UNL     1     -24.580  17.224 -32.266  1.00  0.00    -0.013 C 
ATOM     17  C   UNL     1     -25.747  16.309 -31.904  1.00  0.00     0.016 C 
ATOM     18  C   UNL     1     -25.128  18.661 -32.395  1.00  0.00     0.016 C 
ATOM     19  C   UNL     1     -23.998  16.813 -33.622  1.00  0.00     0.016 C 
ENDBRANCH  15  16
ENDBRANCH   2  10
ENDBRANCH   1   2
BRANCH   1  20
ATOM     20  C   UNL     1     -21.097  14.306 -28.140  1.00  0.00     0.003 A 
ATOM     21  C   UNL     1     -22.278  14.104 -27.479  1.00  0.00     0.117 A 
ATOM     22  C   UNL     1     -20.732  13.508 -29.166  1.00  0.00     0.009 A 
ATOM     23  N   UNL     1     -23.089  13.081 -27.828  1.00  0.00    -0.264 NA
ATOM     24  C   UNL     1     -21.563  12.480 -29.534  1.00  0.00     0.020 A 
ATOM     25  C   UNL     1     -22.748  12.281 -28.852  1.00  0.00     0.111 A 
ENDBRANCH   1  20
BRANCH   1  26
ATOM     26  C   UNL     1     -20.472  15.531 -26.204  1.00  0.00     0.248 C 
ATOM     27  O   UNL     1     -21.449  16.119 -25.817  1.00  0.00    -0.272 OA
ATOM     28  N   UNL     1     -19.551  14.866 -25.266  1.00  0.00    -0.351 N 
ATOM     29  H   UNL     1     -18.876  14.443 -25.589  1.00  0.00     0.163 HD
BRANCH  28  30
ATOM     30  C   UNL     1     -19.725  14.891 -23.835  1.00  0.00     0.082 C 
ATOM     31  C   UNL     1     -18.431  14.360 -23.192  1.00  0.00     0.025 C 
ATOM     32  C   UNL     1     -20.892  13.958 -23.522  1.00  0.00     0.025 C 
ATOM     33  C   UNL     1     -18.619  14.018 -21.706  1.00  0.00     0.002 C 
ATOM     34  C   UNL     1     -21.112  13.805 -22.018  1.00  0.00     0.002 C 
ATOM     35  C   UNL     1     -19.876  13.239 -21.382  1.00  0.00     0.000 C 
ENDBRANCH  28  30
ENDBRANCH   1  26
TORSDOF 8

ENDMDL
MODEL 3
REMARK VINA RESULT:    -9.252      2.096      6.765
REMARK INTER + INTRA:         -14.083
REMARK INTER:                 -11.639
REMARK INTRA:                  -2.445
REMARK CONF_INDEPENDENT:        2.386
REMARK UNBOUND:                 2.445
REMARK SMILES CC(C)(C)c1ccc(N(C(=O)c2c[nH]cn2)C(C(=O)NC2CCCCC2)c2cccnc2)cc1
REMARK SMILES IDX 17 1 9 2 10 3 11 4 12 5 16 6 13 7 15 8 14 9 8 10 33 11 7 12
REMARK SMILES IDX 34 13 6 14 5 15 2 16 4 17 3 18 1 19 27 20 32 21 28 22 31 23
REMARK SMILES IDX 29 24 30 25 18 26 19 27 20 28 21 30 26 31 22 32 25 33 23 34
REMARK SMILES IDX 24 35
REMARK H PARENT 20 29
REMARK Flexibility Score: inf
ROOT
ATOM      1  C   UNL     1     -20.873  16.693 -28.017  1.00  0.00     0.212 C 
ENDROOT
BRANCH   1   2
ATOM      2  N   UNL     1     -20.505  15.391 -27.543  1.00  0.00    -0.290 N 
BRANCH   2   3
ATOM      3  C   UNL     1     -20.251  14.314 -28.509  1.00  0.00     0.279 C 
ATOM      4  O   UNL     1     -19.182  14.279 -29.011  1.00  0.00    -0.267 OA
BRANCH   3   5
ATOM      5  C   UNL     1     -21.330  13.266 -28.865  1.00  0.00     0.146 A 
ATOM      6  N   UNL     1     -21.303  12.520 -29.949  1.00  0.00    -0.232 NA
ATOM      7  C   UNL     1     -22.486  12.948 -28.178  1.00  0.00     0.118 A 
ATOM      8  C   UNL     1     -22.404  11.741 -29.948  1.00  0.00     0.197 A 
ATOM      9  N   UNL     1     -23.128  12.010 -28.864  1.00  0.00    -0.350 N 
ENDBRANCH   3   5
ENDBRANCH   2   3
BRANCH   2  10
ATOM     10  C   UNL     1     -20.562  15.176 -26.078  1.00  0.00     0.045 A 
ATOM     11  C   UNL     1     -21.368  15.958 -25.273  1.00  0.00     0.027 A 
ATOM     12  C   UNL     1     -19.758  14.172 -25.532  1.00  0.00     0.027 A 
ATOM     13  C   UNL     1     -21.396  15.728 -23.886  1.00  0.00     0.006 A 
ATOM     14  C   UNL     1     -19.787  13.942 -24.150  1.00  0.00     0.006 A 
ATOM     15  C   UNL     1     -20.604  14.726 -23.326  1.00  0.00    -0.042 A 
BRANCH  15  16
ATOM     16  C   UNL     1     -20.636  14.461 -21.776  1.00  0.00    -0.013 C 
ATOM     17  C   UNL     1     -21.766  13.491 -21.440  1.00  0.00     0.016 C 
ATOM     18  C   UNL     1     -19.323  13.867 -21.224  1.00  0.00     0.016 C 
ATOM     19  C   UNL     1     -20.880  15.805 -21.081  1.00  0.00     0.016 C 
ENDBRANCH  15  16
ENDBRANCH   2  10
ENDBRANCH   1   2
BRANCH   1  20
ATOM     20  C   UNL     1     -21.515  16.801 -29.368  1.00  0.00     0.003 A 
ATOM     21  C   UNL     1     -21.009  17.640 -30.324  1.00  0.00     0.117 A 
ATOM     22  C   UNL     1     -22.627  16.073 -29.604  1.00  0.00     0.009 A 
ATOM     23  N   UNL     1     -21.634  17.772 -31.515  1.00  0.00    -0.264 NA
ATOM     24  C   UNL     1     -23.252  16.192 -30.820  1.00  0.00     0.020 A 
ATOM     25  C   UNL     1     -22.737  17.050 -31.772  1.00  0.00     0.111 A 
ENDBRANCH   1  20
BRANCH   1  26
ATOM     26  C   UNL     1     -19.571  17.524 -28.211  1.00  0.00     0.248 C 
ATOM     27  O   UNL     1     -18.628  17.082 -28.817  1.00  0.00    -0.272 OA
ATOM     28  N   UNL     1     -19.564  18.892 -27.665  1.00  0.00    -0.351 N 
ATOM     29  H   UNL     1     -20.267  19.171 -27.256  1.00  0.00     0.163 HD
BRANCH  28  30
ATOM     30  C   UNL     1     -18.438  19.785 -27.782  1.00  0.00     0.082 C 
ATOM     31  C   UNL     1     -17.881  20.030 -26.369  1.00  0.00     0.025 C 
ATOM     32  C   UNL     1     -18.973  21.086 -28.373  1.00  0.00     0.025 C 
ATOM     33  C   UNL     1     -16.910  21.220 -26.325  1.00  0.00     0.002 C 
ATOM     34  C   UNL     1     -17.895  22.165 -28.446  1.00  0.00     0.002 C 
ATOM     35  C   UNL     1     -17.377  22.455 -27.067  1.00  0.00     0.000 C 
ENDBRANCH  28  30
ENDBRANCH   1  26
TORSDOF 8

ENDMDL
MODEL 4
REMARK VINA RESULT:    -9.117      1.941      3.210
REMARK INTER + INTRA:         -14.270
REMARK INTER:                 -11.503
REMARK INTRA:                  -2.767
REMARK CONF_INDEPENDENT:        2.386
REMARK UNBOUND:                 2.767
REMARK SMILES CC(C)(C)c1ccc(N(C(=O)c2c[nH]cn2)C(C(=O)NC2CCCCC2)c2cccnc2)cc1
REMARK SMILES IDX 17 1 9 2 10 3 11 4 12 5 16 6 13 7 15 8 14 9 8 10 33 11 7 12
REMARK SMILES IDX 34 13 6 14 5 15 2 16 4 17 3 18 1 19 27 20 32 21 28 22 31 23
REMARK SMILES IDX 29 24 30 25 18 26 19 27 20 28 21 30 26 31 22 32 25 33 23 34
REMARK SMILES IDX 24 35
REMARK H PARENT 20 29
REMARK Flexibility Score: inf
ROOT
ATOM      1  C   UNL     1     -20.303  15.618 -27.603  1.00  0.00     0.212 C 
ENDROOT
BRANCH   1   2
ATOM      2  N   UNL     1     -20.847  16.921 -27.848  1.00  0.00    -0.290 N 
BRANCH   2   3
ATOM      3  C   UNL     1     -22.170  17.049 -28.472  1.00  0.00     0.279 C 
ATOM      4  O   UNL     1     -23.074  17.337 -27.768  1.00  0.00    -0.267 OA
BRANCH   3   5
ATOM      5  C   UNL     1     -22.386  16.815 -29.985  1.00  0.00     0.146 A 
ATOM      6  N   UNL     1     -22.939  15.734 -30.492  1.00  0.00    -0.232 NA
ATOM      7  C   UNL     1     -22.029  17.628 -31.044  1.00  0.00     0.118 A 
ATOM      8  C   UNL     1     -22.946  15.859 -31.834  1.00  0.00     0.197 A 
ATOM      9  N   UNL     1     -22.383  17.017 -32.169  1.00  0.00    -0.350 N 
ENDBRANCH   3   5
ENDBRANCH   2   3
BRANCH   2  10
ATOM     10  C   UNL     1     -19.950  18.074 -27.595  1.00  0.00     0.045 A 
ATOM     11  C   UNL     1     -18.702  18.150 -28.185  1.00  0.00     0.027 A 
ATOM     12  C   UNL     1     -20.395  19.072 -26.724  1.00  0.00     0.027 A 
ATOM     13  C   UNL     1     -17.876  19.257 -27.921  1.00  0.00     0.006 A 
ATOM     14  C   UNL     1     -19.572  20.175 -26.462  1.00  0.00     0.006 A 
ATOM     15  C   UNL     1     -18.309  20.264 -27.059  1.00  0.00    -0.042 A 
BRANCH  15  16
ATOM     16  C   UNL     1     -17.390  21.507 -26.765  1.00  0.00    -0.013 C 
ATOM     17  C   UNL     1     -18.074  22.429 -25.759  1.00  0.00     0.016 C 
ATOM     18  C   UNL     1     -16.006  21.131 -26.196  1.00  0.00     0.016 C 
ATOM     19  C   UNL     1     -17.176  22.248 -28.088  1.00  0.00     0.016 C 
ENDBRANCH  15  16
ENDBRANCH   2  10
ENDBRANCH   1   2
BRANCH   1  20
ATOM     20  C   UNL     1     -21.070  14.426 -28.093  1.00  0.00     0.003 A 
ATOM     21  C   UNL     1     -22.172  13.972 -27.420  1.00  0.00     0.117 A 
ATOM     22  C   UNL     1     -20.623  13.792 -29.197  1.00  0.00     0.009 A 
ATOM     23  N   UNL     1     -22.817  12.860 -27.839  1.00  0.00    -0.264 NA
ATOM     24  C   UNL     1     -21.288  12.674 -29.635  1.00  0.00     0.020 A 
ATOM     25  C   UNL     1     -22.393  12.220 -28.940  1.00  0.00     0.111 A 
ENDBRANCH   1  20
BRANCH   1  26
ATOM     26  C   UNL     1     -20.286  15.381 -26.065  1.00  0.00     0.248 C 
ATOM     27  O   UNL     1     -20.686  16.218 -25.296  1.00  0.00    -0.272 OA
ATOM     28  N   UNL     1     -19.808  14.069 -25.596  1.00  0.00    -0.351 N 
ATOM     29  H   UNL     1     -19.550  13.497 -26.182  1.00  0.00     0.163 HD
BRANCH  28  30
ATOM     30  C   UNL     1     -19.751  13.700 -24.203  1.00  0.00     0.082 C 
ATOM     31  C   UNL     1     -21.127  13.995 -23.580  1.00  0.00     0.025 C 
ATOM     32  C   UNL     1     -18.682  14.580 -23.562  1.00  0.00     0.025 C 
ATOM     33  C   UNL     1     -21.087  13.968 -22.044  1.00  0.00     0.002 C 
ATOM     34  C   UNL     1     -18.597  14.366 -22.052  1.00  0.00     0.002 C 
ATOM     35  C   UNL     1     -19.918  14.700 -21.421  1.00  0.00     0.000 C 
ENDBRANCH  28  30
ENDBRANCH   1  26
TORSDOF 8

ENDMDL
MODEL 5
REMARK VINA RESULT:    -8.996      1.184      1.533
REMARK INTER + INTRA:         -14.672
REMARK INTER:                 -11.383
REMARK INTRA:                  -3.290
REMARK CONF_INDEPENDENT:        2.386
REMARK UNBOUND:                 3.290
REMARK SMILES CC(C)(C)c1ccc(N(C(=O)c2c[nH]cn2)C(C(=O)NC2CCCCC2)c2cccnc2)cc1
REMARK SMILES IDX 17 1 9 2 10 3 11 4 12 5 16 6 13 7 15 8 14 9 8 10 33 11 7 12
REMARK SMILES IDX 34 13 6 14 5 15 2 16 4 17 3 18 1 19 27 20 32 21 28 22 31 23
REMARK SMILES IDX 29 24 30 25 18 26 19 27 20 28 21 30 26 31 22 32 25 33 23 34
REMARK SMILES IDX 24 35
REMARK H PARENT 20 29
REMARK Flexibility Score: inf
ROOT
ATOM      1  C   UNL     1     -20.497  15.195 -27.572  1.00  0.00     0.212 C 
ENDROOT
BRANCH   1   2
ATOM      2  N   UNL     1     -21.032  16.351 -26.914  1.00  0.00    -0.290 N 
BRANCH   2   3
ATOM      3  C   UNL     1     -22.412  16.323 -26.410  1.00  0.00     0.279 C 
ATOM      4  O   UNL     1     -22.743  15.372 -25.793  1.00  0.00    -0.267 OA
BRANCH   3   5
ATOM      5  C   UNL     1     -23.401  17.482 -26.673  1.00  0.00     0.146 A 
ATOM      6  N   UNL     1     -23.425  18.194 -27.779  1.00  0.00    -0.232 NA
ATOM      7  C   UNL     1     -24.372  17.995 -25.834  1.00  0.00     0.118 A 
ATOM      8  C   UNL     1     -24.391  19.126 -27.655  1.00  0.00     0.197 A 
ATOM      9  N   UNL     1     -24.966  19.004 -26.461  1.00  0.00    -0.350 N 
ENDBRANCH   3   5
ENDBRANCH   2   3
BRANCH   2  10
ATOM     10  C   UNL     1     -20.194  17.572 -26.929  1.00  0.00     0.045 A 
ATOM     11  C   UNL     1     -19.447  17.912 -28.041  1.00  0.00     0.027 A 
ATOM     12  C   UNL     1     -20.164  18.360 -25.775  1.00  0.00     0.027 A 
ATOM     13  C   UNL     1     -18.661  19.078 -28.020  1.00  0.00     0.006 A 
ATOM     14  C   UNL     1     -19.380  19.522 -25.754  1.00  0.00     0.006 A 
ATOM     15  C   UNL     1     -18.625  19.877 -26.878  1.00  0.00    -0.042 A 
BRANCH  15  16
ATOM     16  C   UNL     1     -17.751  21.185 -26.852  1.00  0.00    -0.013 C 
ATOM     17  C   UNL     1     -17.840  21.895 -28.200  1.00  0.00     0.016 C 
ATOM     18  C   UNL     1     -18.176  22.189 -25.759  1.00  0.00     0.016 C 
ATOM     19  C   UNL     1     -16.302  20.769 -26.577  1.00  0.00     0.016 C 
ENDBRANCH  15  16
ENDBRANCH   2  10
ENDBRANCH   1   2
BRANCH   1  20
ATOM     20  C   UNL     1     -21.431  14.342 -28.378  1.00  0.00     0.003 A 
ATOM     21  C   UNL     1     -22.021  13.235 -27.833  1.00  0.00     0.117 A 
ATOM     22  C   UNL     1     -21.644  14.676 -29.668  1.00  0.00     0.009 A 
ATOM     23  N   UNL     1     -22.812  12.441 -28.589  1.00  0.00    -0.264 NA
ATOM     24  C   UNL     1     -22.462  13.882 -30.433  1.00  0.00     0.020 A 
ATOM     25  C   UNL     1     -23.044  12.761 -29.872  1.00  0.00     0.111 A 
ENDBRANCH   1  20
BRANCH   1  26
ATOM     26  C   UNL     1     -20.010  14.198 -26.480  1.00  0.00     0.248 C 
ATOM     27  O   UNL     1     -19.378  13.213 -26.766  1.00  0.00    -0.272 OA
ATOM     28  N   UNL     1     -20.312  14.541 -25.080  1.00  0.00    -0.351 N 
ATOM     29  H   UNL     1     -20.750  15.264 -24.923  1.00  0.00     0.163 HD
BRANCH  28  30
ATOM     30  C   UNL     1     -19.910  13.724 -23.961  1.00  0.00     0.082 C 
ATOM     31  C   UNL     1     -21.027  13.789 -22.904  1.00  0.00     0.025 C 
ATOM     32  C   UNL     1     -18.626  14.340 -23.411  1.00  0.00     0.025 C 
ATOM     33  C   UNL     1     -20.570  13.246 -21.541  1.00  0.00     0.002 C 
ATOM     34  C   UNL     1     -18.151  13.631 -22.145  1.00  0.00     0.002 C 
ATOM     35  C   UNL     1     -19.209  13.729 -21.084  1.00  0.00     0.000 C 
ENDBRANCH  28  30
ENDBRANCH   1  26
TORSDOF 8

ENDMDL
MODEL 6
REMARK VINA RESULT:    -8.922      3.235      7.184
REMARK INTER + INTRA:         -14.618
REMARK INTER:                 -11.308
REMARK INTRA:                  -3.310
REMARK CONF_INDEPENDENT:        2.386
REMARK UNBOUND:                 3.310
REMARK SMILES CC(C)(C)c1ccc(N(C(=O)c2c[nH]cn2)C(C(=O)NC2CCCCC2)c2cccnc2)cc1
REMARK SMILES IDX 17 1 9 2 10 3 11 4 12 5 16 6 13 7 15 8 14 9 8 10 33 11 7 12
REMARK SMILES IDX 34 13 6 14 5 15 2 16 4 17 3 18 1 19 27 20 32 21 28 22 31 23
REMARK SMILES IDX 29 24 30 25 18 26 19 27 20 28 21 30 26 31 22 32 25 33 23 34
REMARK SMILES IDX 24 35
REMARK H PARENT 20 29
REMARK Flexibility Score: inf
ROOT
ATOM      1  C   UNL     1     -19.745  20.404 -27.202  1.00  0.00     0.212 C 
ENDROOT
BRANCH   1   2
ATOM      2  N   UNL     1     -19.902  19.835 -28.508  1.00  0.00    -0.290 N 
BRANCH   2   3
ATOM      3  C   UNL     1     -20.034  20.720 -29.672  1.00  0.00     0.279 C 
ATOM      4  O   UNL     1     -19.808  21.868 -29.507  1.00  0.00    -0.267 OA
BRANCH   3   5
ATOM      5  C   UNL     1     -20.455  20.186 -31.061  1.00  0.00     0.146 A 
ATOM      6  N   UNL     1     -21.194  19.113 -31.245  1.00  0.00    -0.232 NA
ATOM      7  C   UNL     1     -20.128  20.677 -32.310  1.00  0.00     0.118 A 
ATOM      8  C   UNL     1     -21.344  18.932 -32.572  1.00  0.00     0.197 A 
ATOM      9  N   UNL     1     -20.686  19.889 -33.222  1.00  0.00    -0.350 N 
ENDBRANCH   3   5
ENDBRANCH   2   3
BRANCH   2  10
ATOM     10  C   UNL     1     -20.084  18.366 -28.575  1.00  0.00     0.045 A 
ATOM     11  C   UNL     1     -19.006  17.521 -28.760  1.00  0.00     0.027 A 
ATOM     12  C   UNL     1     -21.383  17.861 -28.469  1.00  0.00     0.027 A 
ATOM     13  C   UNL     1     -19.215  16.131 -28.822  1.00  0.00     0.006 A 
ATOM     14  C   UNL     1     -21.591  16.477 -28.531  1.00  0.00     0.006 A 
ATOM     15  C   UNL     1     -20.505  15.612 -28.711  1.00  0.00    -0.042 A 
BRANCH  15  16
ATOM     16  C   UNL     1     -20.744  14.058 -28.774  1.00  0.00    -0.013 C 
ATOM     17  C   UNL     1     -21.395  13.582 -27.479  1.00  0.00     0.016 C 
ATOM     18  C   UNL     1     -21.646  13.620 -29.947  1.00  0.00     0.016 C 
ATOM     19  C   UNL     1     -19.378  13.386 -28.948  1.00  0.00     0.016 C 
ENDBRANCH  15  16
ENDBRANCH   2  10
ENDBRANCH   1   2
BRANCH   1  20
ATOM     20  C   UNL     1     -18.550  21.273 -26.945  1.00  0.00     0.003 A 
ATOM     21  C   UNL     1     -18.588  22.263 -26.001  1.00  0.00     0.117 A 
ATOM     22  C   UNL     1     -17.446  21.074 -27.695  1.00  0.00     0.009 A 
ATOM     23  N   UNL     1     -17.524  23.077 -25.823  1.00  0.00    -0.264 NA
ATOM     24  C   UNL     1     -16.358  21.887 -27.503  1.00  0.00     0.020 A 
ATOM     25  C   UNL     1     -16.413  22.890 -26.553  1.00  0.00     0.111 A 
ENDBRANCH   1  20
BRANCH   1  26
ATOM     26  C   UNL     1     -19.522  19.241 -26.191  1.00  0.00     0.248 C 
ATOM     27  O   UNL     1     -18.418  18.932 -25.822  1.00  0.00    -0.272 OA
ATOM     28  N   UNL     1     -20.725  18.572 -25.667  1.00  0.00    -0.351 N 
ATOM     29  H   UNL     1     -21.494  18.839 -25.945  1.00  0.00     0.163 HD
BRANCH  28  30
ATOM     30  C   UNL     1     -20.677  17.492 -24.712  1.00  0.00     0.082 C 
ATOM     31  C   UNL     1     -19.706  16.427 -25.253  1.00  0.00     0.025 C 
ATOM     32  C   UNL     1     -22.091  16.922 -24.627  1.00  0.00     0.025 C 
ATOM     33  C   UNL     1     -19.833  15.091 -24.504  1.00  0.00     0.002 C 
ATOM     34  C   UNL     1     -22.156  15.690 -23.727  1.00  0.00     0.002 C 
ATOM     35  C   UNL     1     -21.253  14.621 -24.270  1.00  0.00     0.000 C 
ENDBRANCH  28  30
ENDBRANCH   1  26
TORSDOF 8

ENDMDL
MODEL 7
REMARK VINA RESULT:    -8.796      0.995      1.538
REMARK INTER + INTRA:         -14.584
REMARK INTER:                 -11.182
REMARK INTRA:                  -3.402
REMARK CONF_INDEPENDENT:        2.386
REMARK UNBOUND:                 3.402
REMARK SMILES CC(C)(C)c1ccc(N(C(=O)c2c[nH]cn2)C(C(=O)NC2CCCCC2)c2cccnc2)cc1
REMARK SMILES IDX 17 1 9 2 10 3 11 4 12 5 16 6 13 7 15 8 14 9 8 10 33 11 7 12
REMARK SMILES IDX 34 13 6 14 5 15 2 16 4 17 3 18 1 19 27 20 32 21 28 22 31 23
REMARK SMILES IDX 29 24 30 25 18 26 19 27 20 28 21 30 26 31 22 32 25 33 23 34
REMARK SMILES IDX 24 35
REMARK H PARENT 20 29
REMARK Flexibility Score: inf
ROOT
ATOM      1  C   UNL     1     -20.381  15.766 -26.851  1.00  0.00     0.212 C 
ENDROOT
BRANCH   1   2
ATOM      2  N   UNL     1     -20.961  17.048 -26.580  1.00  0.00    -0.290 N 
BRANCH   2   3
ATOM      3  C   UNL     1     -22.418  17.169 -26.442  1.00  0.00     0.279 C 
ATOM      4  O   UNL     1     -23.073  16.923 -27.394  1.00  0.00    -0.267 OA
BRANCH   3   5
ATOM      5  C   UNL     1     -23.080  17.603 -25.114  1.00  0.00     0.146 A 
ATOM      6  N   UNL     1     -22.696  17.183 -23.927  1.00  0.00    -0.232 NA
ATOM      7  C   UNL     1     -24.163  18.440 -24.921  1.00  0.00     0.118 A 
ATOM      8  C   UNL     1     -23.504  17.743 -23.004  1.00  0.00     0.197 A 
ATOM      9  N   UNL     1     -24.403  18.508 -23.617  1.00  0.00    -0.350 N 
ENDBRANCH   3   5
ENDBRANCH   2   3
BRANCH   2  10
ATOM     10  C   UNL     1     -20.046  18.213 -26.617  1.00  0.00     0.045 A 
ATOM     11  C   UNL     1     -19.994  19.113 -25.570  1.00  0.00     0.027 A 
ATOM     12  C   UNL     1     -19.252  18.387 -27.754  1.00  0.00     0.027 A 
ATOM     13  C   UNL     1     -19.115  20.210 -25.639  1.00  0.00     0.006 A 
ATOM     14  C   UNL     1     -18.376  19.478 -27.823  1.00  0.00     0.006 A 
ATOM     15  C   UNL     1     -18.312  20.393 -26.764  1.00  0.00    -0.042 A 
BRANCH  15  16
ATOM     16  C   UNL     1     -17.324  21.614 -26.845  1.00  0.00    -0.013 C 
ATOM     17  C   UNL     1     -17.087  21.993 -28.304  1.00  0.00     0.016 C 
ATOM     18  C   UNL     1     -17.834  22.870 -26.106  1.00  0.00     0.016 C 
ATOM     19  C   UNL     1     -16.003  21.185 -26.197  1.00  0.00     0.016 C 
ENDBRANCH  15  16
ENDBRANCH   2  10
ENDBRANCH   1   2
BRANCH   1  20
ATOM     20  C   UNL     1     -21.209  14.753 -27.585  1.00  0.00     0.003 A 
ATOM     21  C   UNL     1     -22.151  14.007 -26.931  1.00  0.00     0.117 A 
ATOM     22  C   UNL     1     -20.974  14.574 -28.902  1.00  0.00     0.009 A 
ATOM     23  N   UNL     1     -22.847  13.055 -27.593  1.00  0.00    -0.264 NA
ATOM     24  C   UNL     1     -21.692  13.621 -29.580  1.00  0.00     0.020 A 
ATOM     25  C   UNL     1     -22.634  12.867 -28.906  1.00  0.00     0.111 A 
ENDBRANCH   1  20
BRANCH   1  26
ATOM     26  C   UNL     1     -20.127  15.052 -25.491  1.00  0.00     0.248 C 
ATOM     27  O   UNL     1     -19.731  13.915 -25.443  1.00  0.00    -0.272 OA
ATOM     28  N   UNL     1     -20.345  15.845 -24.269  1.00  0.00    -0.351 N 
ATOM     29  H   UNL     1     -20.611  16.658 -24.353  1.00  0.00     0.163 HD
BRANCH  28  30
ATOM     30  C   UNL     1     -20.135  15.325 -22.941  1.00  0.00     0.082 C 
ATOM     31  C   UNL     1     -18.759  14.637 -22.915  1.00  0.00     0.025 C 
ATOM     32  C   UNL     1     -21.241  14.302 -22.693  1.00  0.00     0.025 C 
ATOM     33  C   UNL     1     -18.573  13.755 -21.670  1.00  0.00     0.002 C 
ATOM     34  C   UNL     1     -21.070  13.589 -21.354  1.00  0.00     0.002 C 
ATOM     35  C   UNL     1     -19.753  12.868 -21.332  1.00  0.00     0.000 C 
ENDBRANCH  28  30
ENDBRANCH   1  26
TORSDOF 8

ENDMDL
MODEL 8
REMARK VINA RESULT:    -8.517      2.248      5.776
REMARK INTER + INTRA:         -14.122
REMARK INTER:                 -10.904
REMARK INTRA:                  -3.219
REMARK CONF_INDEPENDENT:        2.386
REMARK UNBOUND:                 3.219
REMARK SMILES CC(C)(C)c1ccc(N(C(=O)c2c[nH]cn2)C(C(=O)NC2CCCCC2)c2cccnc2)cc1
REMARK SMILES IDX 17 1 9 2 10 3 11 4 12 5 16 6 13 7 15 8 14 9 8 10 33 11 7 12
REMARK SMILES IDX 34 13 6 14 5 15 2 16 4 17 3 18 1 19 27 20 32 21 28 22 31 23
REMARK SMILES IDX 29 24 30 25 18 26 19 27 20 28 21 30 26 31 22 32 25 33 23 34
REMARK SMILES IDX 24 35
REMARK H PARENT 20 29
REMARK Flexibility Score: inf
ROOT
ATOM      1  C   UNL     1     -20.999  14.935 -24.358  1.00  0.00     0.212 C 
ENDROOT
BRANCH   1   2
ATOM      2  N   UNL     1     -20.786  16.285 -24.789  1.00  0.00    -0.290 N 
BRANCH   2   3
ATOM      3  C   UNL     1     -20.439  17.315 -23.802  1.00  0.00     0.279 C 
ATOM      4  O   UNL     1     -20.615  17.053 -22.663  1.00  0.00    -0.267 OA
BRANCH   3   5
ATOM      5  C   UNL     1     -19.872  18.691 -24.221  1.00  0.00     0.146 A 
ATOM      6  N   UNL     1     -19.003  18.865 -25.193  1.00  0.00    -0.232 NA
ATOM      7  C   UNL     1     -20.120  19.933 -23.666  1.00  0.00     0.118 A 
ATOM      8  C   UNL     1     -18.714  20.179 -25.266  1.00  0.00     0.197 A 
ATOM      9  N   UNL     1     -19.396  20.829 -24.326  1.00  0.00    -0.350 N 
ENDBRANCH   3   5
ENDBRANCH   2   3
BRANCH   2  10
ATOM     10  C   UNL     1     -21.093  16.586 -26.207  1.00  0.00     0.045 A 
ATOM     11  C   UNL     1     -20.091  16.657 -27.156  1.00  0.00     0.027 A 
ATOM     12  C   UNL     1     -22.428  16.818 -26.554  1.00  0.00     0.027 A 
ATOM     13  C   UNL     1     -20.418  16.947 -28.492  1.00  0.00     0.006 A 
ATOM     14  C   UNL     1     -22.753  17.107 -27.885  1.00  0.00     0.006 A 
ATOM     15  C   UNL     1     -21.745  17.176 -28.855  1.00  0.00    -0.042 A 
BRANCH  15  16
ATOM     16  C   UNL     1     -22.117  17.495 -30.349  1.00  0.00    -0.013 C 
ATOM     17  C   UNL     1     -22.083  16.213 -31.176  1.00  0.00     0.016 C 
ATOM     18  C   UNL     1     -23.515  18.129 -30.516  1.00  0.00     0.016 C 
ATOM     19  C   UNL     1     -21.079  18.487 -30.883  1.00  0.00     0.016 C 
ENDBRANCH  15  16
ENDBRANCH   2  10
ENDBRANCH   1   2
BRANCH   1  20
ATOM     20  C   UNL     1     -20.055  14.356 -23.346  1.00  0.00     0.003 A 
ATOM     21  C   UNL     1     -20.498  13.489 -22.385  1.00  0.00     0.117 A 
ATOM     22  C   UNL     1     -18.762  14.742 -23.389  1.00  0.00     0.009 A 
ATOM     23  N   UNL     1     -19.647  13.023 -21.443  1.00  0.00    -0.264 NA
ATOM     24  C   UNL     1     -17.893  14.255 -22.445  1.00  0.00     0.020 A 
ATOM     25  C   UNL     1     -18.355  13.388 -21.474  1.00  0.00     0.111 A 
ENDBRANCH   1  20
BRANCH   1  26
ATOM     26  C   UNL     1     -20.778  13.996 -25.580  1.00  0.00     0.248 C 
ATOM     27  O   UNL     1     -19.755  13.376 -25.719  1.00  0.00    -0.272 OA
ATOM     28  N   UNL     1     -21.897  13.861 -26.529  1.00  0.00    -0.351 N 
ATOM     29  H   UNL     1     -22.614  14.309 -26.379  1.00  0.00     0.163 HD
BRANCH  28  30
ATOM     30  C   UNL     1     -21.846  13.016 -27.697  1.00  0.00     0.082 C 
ATOM     31  C   UNL     1     -20.618  13.432 -28.527  1.00  0.00     0.025 C 
ATOM     32  C   UNL     1     -23.128  13.279 -28.481  1.00  0.00     0.025 C 
ATOM     33  C   UNL     1     -20.652  12.845 -29.947  1.00  0.00     0.002 C 
ATOM     34  C   UNL     1     -23.150  12.524 -29.808  1.00  0.00     0.002 C 
ATOM     35  C   UNL     1     -21.987  12.956 -30.653  1.00  0.00     0.000 C 
ENDBRANCH  28  30
ENDBRANCH   1  26
TORSDOF 8

ENDMDL
MODEL 9
REMARK VINA RESULT:    -8.417      2.533      5.695
REMARK INTER + INTRA:         -14.046
REMARK INTER:                 -10.804
REMARK INTRA:                  -3.243
REMARK CONF_INDEPENDENT:        2.386
REMARK UNBOUND:                 3.243
REMARK SMILES CC(C)(C)c1ccc(N(C(=O)c2c[nH]cn2)C(C(=O)NC2CCCCC2)c2cccnc2)cc1
REMARK SMILES IDX 17 1 9 2 10 3 11 4 12 5 16 6 13 7 15 8 14 9 8 10 33 11 7 12
REMARK SMILES IDX 34 13 6 14 5 15 2 16 4 17 3 18 1 19 27 20 32 21 28 22 31 23
REMARK SMILES IDX 29 24 30 25 18 26 19 27 20 28 21 30 26 31 22 32 25 33 23 34
REMARK SMILES IDX 24 35
REMARK H PARENT 20 29
REMARK Flexibility Score: inf
ROOT
ATOM      1  C   UNL     1     -20.899  15.292 -24.561  1.00  0.00     0.212 C 
ENDROOT
BRANCH   1   2
ATOM      2  N   UNL     1     -20.555  16.565 -25.122  1.00  0.00    -0.290 N 
BRANCH   2   3
ATOM      3  C   UNL     1     -19.948  17.593 -24.267  1.00  0.00     0.279 C 
ATOM      4  O   UNL     1     -19.007  18.165 -24.694  1.00  0.00    -0.267 OA
BRANCH   3   5
ATOM      5  C   UNL     1     -20.505  17.920 -22.862  1.00  0.00     0.146 A 
ATOM      6  N   UNL     1     -21.489  17.262 -22.288  1.00  0.00    -0.232 NA
ATOM      7  C   UNL     1     -20.127  18.929 -21.997  1.00  0.00     0.118 A 
ATOM      8  C   UNL     1     -21.725  17.828 -21.087  1.00  0.00     0.197 A 
ATOM      9  N   UNL     1     -20.893  18.852 -20.914  1.00  0.00    -0.350 N 
ENDBRANCH   3   5
ENDBRANCH   2   3
BRANCH   2  10
ATOM     10  C   UNL     1     -20.991  16.817 -26.516  1.00  0.00     0.045 A 
ATOM     11  C   UNL     1     -22.296  17.167 -26.803  1.00  0.00     0.027 A 
ATOM     12  C   UNL     1     -20.046  16.669 -27.535  1.00  0.00     0.027 A 
ATOM     13  C   UNL     1     -22.676  17.397 -28.138  1.00  0.00     0.006 A 
ATOM     14  C   UNL     1     -20.424  16.898 -28.864  1.00  0.00     0.006 A 
ATOM     15  C   UNL     1     -21.743  17.258 -29.165  1.00  0.00    -0.042 A 
BRANCH  15  16
ATOM     16  C   UNL     1     -22.162  17.520 -30.659  1.00  0.00    -0.013 C 
ATOM     17  C   UNL     1     -23.592  18.051 -30.710  1.00  0.00     0.016 C 
ATOM     18  C   UNL     1     -21.253  18.534 -31.386  1.00  0.00     0.016 C 
ATOM     19  C   UNL     1     -22.076  16.184 -31.404  1.00  0.00     0.016 C 
ENDBRANCH  15  16
ENDBRANCH   2  10
ENDBRANCH   1   2
BRANCH   1  20
ATOM     20  C   UNL     1     -20.017  14.727 -23.487  1.00  0.00     0.003 A 
ATOM     21  C   UNL     1     -18.654  14.803 -23.583  1.00  0.00     0.117 A 
ATOM     22  C   UNL     1     -20.605  14.112 -22.440  1.00  0.00     0.009 A 
ATOM     23  N   UNL     1     -17.871  14.237 -22.638  1.00  0.00    -0.264 NA
ATOM     24  C   UNL     1     -19.812  13.552 -21.470  1.00  0.00     0.020 A 
ATOM     25  C   UNL     1     -18.437  13.627 -21.583  1.00  0.00     0.111 A 
ENDBRANCH   1  20
BRANCH   1  26
ATOM     26  C   UNL     1     -20.769  14.218 -25.682  1.00  0.00     0.248 C 
ATOM     27  O   UNL     1     -19.837  13.456 -25.718  1.00  0.00    -0.272 OA
ATOM     28  N   UNL     1     -21.863  14.144 -26.665  1.00  0.00    -0.351 N 
ATOM     29  H   UNL     1     -22.517  14.697 -26.590  1.00  0.00     0.163 HD
BRANCH  28  30
ATOM     30  C   UNL     1     -21.891  13.192 -27.748  1.00  0.00     0.082 C 
ATOM     31  C   UNL     1     -20.616  13.394 -28.587  1.00  0.00     0.025 C 
ATOM     32  C   UNL     1     -23.128  13.515 -28.582  1.00  0.00     0.025 C 
ATOM     33  C   UNL     1     -20.696  12.683 -29.947  1.00  0.00     0.002 C 
ATOM     34  C   UNL     1     -23.216  12.644 -29.833  1.00  0.00     0.002 C 
ATOM     35  C   UNL     1     -22.003  12.868 -30.689  1.00  0.00     0.000 C 
ENDBRANCH  28  30
ENDBRANCH   1  26
TORSDOF 8

ENDMDL
