MODEL 1
REMARK VINA RESULT:    -9.327      0.000      0.000
REMARK INTER + INTRA:         -15.019
REMARK INTER:                 -11.714
REMARK INTRA:                  -3.306
REMARK CONF_INDEPENDENT:        2.386
REMARK UNBOUND:                 3.306
REMARK SMILES CC(C)(C)c1ccc(N(C(=O)c2c[nH]cn2)C(C(=O)NC2CCCCC2)c2cccnc2)cc1
REMARK SMILES IDX 17 1 9 2 10 3 11 4 12 5 16 6 13 7 15 8 14 9 8 10 33 11 7 12
REMARK SMILES IDX 34 13 6 14 5 15 2 16 4 17 3 18 1 19 27 20 32 21 28 22 31 23
REMARK SMILES IDX 29 24 30 25 18 26 19 27 20 28 21 30 26 31 22 32 25 33 23 34
REMARK SMILES IDX 24 35
REMARK H PARENT 20 29
REMARK Flexibility Score: inf
ROOT
ATOM      1  C   UNL     1     -20.537  15.116 -27.485  1.00  0.00     0.212 C 
ENDROOT
BRANCH   1   2
ATOM      2  N   UNL     1     -21.068  16.289 -26.854  1.00  0.00    -0.290 N 
BRANCH   2   3
ATOM      3  C   UNL     1     -22.422  16.256 -26.286  1.00  0.00     0.279 C 
ATOM      4  O   UNL     1     -23.274  15.775 -26.949  1.00  0.00    -0.267 OA
BRANCH   3   5
ATOM      5  C   UNL     1     -22.733  16.826 -24.883  1.00  0.00     0.146 A 
ATOM      6  N   UNL     1     -22.552  16.163 -23.761  1.00  0.00    -0.232 NA
ATOM      7  C   UNL     1     -23.267  18.056 -24.550  1.00  0.00     0.118 A 
ATOM      8  C   UNL     1     -22.947  16.951 -22.741  1.00  0.00     0.197 A 
ATOM      9  N   UNL     1     -23.389  18.108 -23.229  1.00  0.00    -0.350 N 
ENDBRANCH   3   5
ENDBRANCH   2   3
BRANCH   2  10
ATOM     10  C   UNL     1     -20.259  17.526 -26.962  1.00  0.00     0.045 A 
ATOM     11  C   UNL     1     -19.975  18.088 -28.191  1.00  0.00     0.027 A 
ATOM     12  C   UNL     1     -19.772  18.095 -25.781  1.00  0.00     0.027 A 
ATOM     13  C   UNL     1     -19.202  19.262 -28.257  1.00  0.00     0.006 A 
ATOM     14  C   UNL     1     -19.002  19.263 -25.847  1.00  0.00     0.006 A 
ATOM     15  C   UNL     1     -18.714  19.844 -27.088  1.00  0.00    -0.042 A 
BRANCH  15  16
ATOM     16  C   UNL     1     -17.854  21.160 -27.155  1.00  0.00    -0.013 C 
ATOM     17  C   UNL     1     -18.192  21.935 -28.426  1.00  0.00     0.016 C 
ATOM     18  C   UNL     1     -18.073  22.103 -25.953  1.00  0.00     0.016 C 
ATOM     19  C   UNL     1     -16.378  20.748 -27.174  1.00  0.00     0.016 C 
ENDBRANCH  15  16
ENDBRANCH   2  10
ENDBRANCH   1   2
BRANCH   1  20
ATOM     20  C   UNL     1     -21.470  14.258 -28.287  1.00  0.00     0.003 A 
ATOM     21  C   UNL     1     -22.173  13.242 -27.699  1.00  0.00     0.117 A 
ATOM     22  C   UNL     1     -21.570  14.494 -29.612  1.00  0.00     0.009 A 
ATOM     23  N   UNL     1     -22.963  12.438 -28.446  1.00  0.00    -0.264 NA
ATOM     24  C   UNL     1     -22.386  13.691 -30.369  1.00  0.00     0.020 A 
ATOM     25  C   UNL     1     -23.083  12.662 -29.765  1.00  0.00     0.111 A 
ENDBRANCH   1  20
BRANCH   1  26
ATOM     26  C   UNL     1     -20.073  14.134 -26.370  1.00  0.00     0.248 C 
ATOM     27  O   UNL     1     -19.431  13.149 -26.628  1.00  0.00    -0.272 OA
ATOM     28  N   UNL     1     -20.412  14.491 -24.982  1.00  0.00    -0.351 N 
ATOM     29  H   UNL     1     -20.857  15.214 -24.844  1.00  0.00     0.163 HD
BRANCH  28  30
ATOM     30  C   UNL     1     -20.035  13.689 -23.844  1.00  0.00     0.082 C 
ATOM     31  C   UNL     1     -21.174  13.768 -22.812  1.00  0.00     0.025 C 
ATOM     32  C   UNL     1     -18.763  14.311 -23.275  1.00  0.00     0.025 C 
ATOM     33  C   UNL     1     -20.747  13.243 -21.433  1.00  0.00     0.002 C 
ATOM     34  C   UNL     1     -18.315  13.618 -21.989  1.00  0.00     0.002 C 
ATOM     35  C   UNL     1     -19.396  13.732 -20.953  1.00  0.00     0.000 C 
ENDBRANCH  28  30
ENDBRANCH   1  26
TORSDOF 8

ENDMDL
MODEL 2
REMARK VINA RESULT:    -9.247      2.612      4.702
REMARK INTER + INTRA:         -14.304
REMARK INTER:                 -11.633
REMARK INTRA:                  -2.671
REMARK CONF_INDEPENDENT:        2.386
REMARK UNBOUND:                 2.671
REMARK SMILES CC(C)(C)c1ccc(N(C(=O)c2c[nH]cn2)C(C(=O)NC2CCCCC2)c2cccnc2)cc1
REMARK SMILES IDX 17 1 9 2 10 3 11 4 12 5 16 6 13 7 15 8 14 9 8 10 33 11 7 12
REMARK SMILES IDX 34 13 6 14 5 15 2 16 4 17 3 18 1 19 27 20 32 21 28 22 31 23
REMARK SMILES IDX 29 24 30 25 18 26 19 27 20 28 21 30 26 31 22 32 25 33 23 34
REMARK SMILES IDX 24 35
REMARK H PARENT 20 29
REMARK Flexibility Score: inf
ROOT
ATOM      1  C   UNL     1     -20.146  15.372 -27.717  1.00  0.00     0.212 C 
ENDROOT
BRANCH   1   2
ATOM      2  N   UNL     1     -20.279  16.665 -28.319  1.00  0.00    -0.290 N 
BRANCH   2   3
ATOM      3  C   UNL     1     -19.439  17.775 -27.848  1.00  0.00     0.279 C 
ATOM      4  O   UNL     1     -18.542  18.105 -28.541  1.00  0.00    -0.267 OA
BRANCH   3   5
ATOM      5  C   UNL     1     -19.705  18.485 -26.500  1.00  0.00     0.146 A 
ATOM      6  N   UNL     1     -19.003  18.278 -25.407  1.00  0.00    -0.232 NA
ATOM      7  C   UNL     1     -20.696  19.395 -26.185  1.00  0.00     0.118 A 
ATOM      8  C   UNL     1     -19.523  19.043 -24.426  1.00  0.00     0.197 A 
ATOM      9  N   UNL     1     -20.563  19.721 -24.905  1.00  0.00    -0.350 N 
ENDBRANCH   3   5
ENDBRANCH   2   3
BRANCH   2  10
ATOM     10  C   UNL     1     -21.388  16.837 -29.287  1.00  0.00     0.045 A 
ATOM     11  C   UNL     1     -22.504  17.587 -28.968  1.00  0.00     0.027 A 
ATOM     12  C   UNL     1     -21.282  16.198 -30.525  1.00  0.00     0.027 A 
ATOM     13  C   UNL     1     -23.540  17.727 -29.909  1.00  0.00     0.006 A 
ATOM     14  C   UNL     1     -22.313  16.338 -31.463  1.00  0.00     0.006 A 
ATOM     15  C   UNL     1     -23.446  17.100 -31.152  1.00  0.00    -0.042 A 
BRANCH  15  16
ATOM     16  C   UNL     1     -24.598  17.258 -32.210  1.00  0.00    -0.013 C 
ATOM     17  C   UNL     1     -25.166  18.674 -32.150  1.00  0.00     0.016 C 
ATOM     18  C   UNL     1     -24.145  16.991 -33.661  1.00  0.00     0.016 C 
ATOM     19  C   UNL     1     -25.692  16.244 -31.859  1.00  0.00     0.016 C 
ENDBRANCH  15  16
ENDBRANCH   2  10
ENDBRANCH   1   2
BRANCH   1  20
ATOM     20  C   UNL     1     -21.093  14.290 -28.141  1.00  0.00     0.003 A 
ATOM     21  C   UNL     1     -22.271  14.084 -27.475  1.00  0.00     0.117 A 
ATOM     22  C   UNL     1     -20.736  13.502 -29.177  1.00  0.00     0.009 A 
ATOM     23  N   UNL     1     -23.087  13.066 -27.831  1.00  0.00    -0.264 NA
ATOM     24  C   UNL     1     -21.572  12.480 -29.552  1.00  0.00     0.020 A 
ATOM     25  C   UNL     1     -22.753  12.276 -28.865  1.00  0.00     0.111 A 
ENDBRANCH   1  20
BRANCH   1  26
ATOM     26  C   UNL     1     -20.471  15.509 -26.200  1.00  0.00     0.248 C 
ATOM     27  O   UNL     1     -21.459  16.082 -25.818  1.00  0.00    -0.272 OA
ATOM     28  N   UNL     1     -19.542  14.862 -25.257  1.00  0.00    -0.351 N 
ATOM     29  H   UNL     1     -18.860  14.449 -25.576  1.00  0.00     0.163 HD
BRANCH  28  30
ATOM     30  C   UNL     1     -19.722  14.890 -23.826  1.00  0.00     0.082 C 
ATOM     31  C   UNL     1     -18.424  14.376 -23.178  1.00  0.00     0.025 C 
ATOM     32  C   UNL     1     -20.878  13.944 -23.514  1.00  0.00     0.025 C 
ATOM     33  C   UNL     1     -18.612  14.036 -21.691  1.00  0.00     0.002 C 
ATOM     34  C   UNL     1     -21.102  13.793 -22.011  1.00  0.00     0.002 C 
ATOM     35  C   UNL     1     -19.861  13.243 -21.369  1.00  0.00     0.000 C 
ENDBRANCH  28  30
ENDBRANCH   1  26
TORSDOF 8

ENDMDL
MODEL 3
REMARK VINA RESULT:    -9.240      1.996      3.171
REMARK INTER + INTRA:         -14.279
REMARK INTER:                 -11.627
REMARK INTRA:                  -2.652
REMARK CONF_INDEPENDENT:        2.386
REMARK UNBOUND:                 2.652
REMARK SMILES CC(C)(C)c1ccc(N(C(=O)c2c[nH]cn2)C(C(=O)NC2CCCCC2)c2cccnc2)cc1
REMARK SMILES IDX 17 1 9 2 10 3 11 4 12 5 16 6 13 7 15 8 14 9 8 10 33 11 7 12
REMARK SMILES IDX 34 13 6 14 5 15 2 16 4 17 3 18 1 19 27 20 32 21 28 22 31 23
REMARK SMILES IDX 29 24 30 25 18 26 19 27 20 28 21 30 26 31 22 32 25 33 23 34
REMARK SMILES IDX 24 35
REMARK H PARENT 20 29
REMARK Flexibility Score: inf
ROOT
ATOM      1  C   UNL     1     -19.962  15.806 -27.253  1.00  0.00     0.212 C 
ENDROOT
BRANCH   1   2
ATOM      2  N   UNL     1     -20.558  17.092 -27.462  1.00  0.00    -0.290 N 
BRANCH   2   3
ATOM      3  C   UNL     1     -21.890  17.181 -28.076  1.00  0.00     0.279 C 
ATOM      4  O   UNL     1     -22.791  17.476 -27.371  1.00  0.00    -0.267 OA
BRANCH   3   5
ATOM      5  C   UNL     1     -22.117  16.900 -29.579  1.00  0.00     0.146 A 
ATOM      6  N   UNL     1     -22.807  15.879 -30.042  1.00  0.00    -0.232 NA
ATOM      7  C   UNL     1     -21.639  17.600 -30.671  1.00  0.00     0.118 A 
ATOM      8  C   UNL     1     -22.780  15.933 -31.389  1.00  0.00     0.197 A 
ATOM      9  N   UNL     1     -22.060  16.985 -31.770  1.00  0.00    -0.350 N 
ENDBRANCH   3   5
ENDBRANCH   2   3
BRANCH   2  10
ATOM     10  C   UNL     1     -19.707  18.273 -27.187  1.00  0.00     0.045 A 
ATOM     11  C   UNL     1     -18.629  18.581 -27.995  1.00  0.00     0.027 A 
ATOM     12  C   UNL     1     -20.015  19.056 -26.070  1.00  0.00     0.027 A 
ATOM     13  C   UNL     1     -17.841  19.708 -27.702  1.00  0.00     0.006 A 
ATOM     14  C   UNL     1     -19.230  20.180 -25.780  1.00  0.00     0.006 A 
ATOM     15  C   UNL     1     -18.138  20.502 -26.596  1.00  0.00    -0.042 A 
BRANCH  15  16
ATOM     16  C   UNL     1     -17.263  21.768 -26.268  1.00  0.00    -0.013 C 
ATOM     17  C   UNL     1     -17.919  22.575 -25.151  1.00  0.00     0.016 C 
ATOM     18  C   UNL     1     -15.825  21.425 -25.822  1.00  0.00     0.016 C 
ATOM     19  C   UNL     1     -17.177  22.615 -27.541  1.00  0.00     0.016 C 
ENDBRANCH  15  16
ENDBRANCH   2  10
ENDBRANCH   1   2
BRANCH   1  20
ATOM     20  C   UNL     1     -20.587  14.616 -27.918  1.00  0.00     0.003 A 
ATOM     21  C   UNL     1     -19.992  14.019 -28.995  1.00  0.00     0.117 A 
ATOM     22  C   UNL     1     -21.770  14.173 -27.445  1.00  0.00     0.009 A 
ATOM     23  N   UNL     1     -20.597  12.985 -29.622  1.00  0.00    -0.264 NA
ATOM     24  C   UNL     1     -22.377  13.111 -28.068  1.00  0.00     0.020 A 
ATOM     25  C   UNL     1     -21.771  12.523 -29.162  1.00  0.00     0.111 A 
ENDBRANCH   1  20
BRANCH   1  26
ATOM     26  C   UNL     1     -20.106  15.446 -25.745  1.00  0.00     0.248 C 
ATOM     27  O   UNL     1     -20.579  16.223 -24.955  1.00  0.00    -0.272 OA
ATOM     28  N   UNL     1     -19.684  14.095 -25.338  1.00  0.00    -0.351 N 
ATOM     29  H   UNL     1     -19.369  13.568 -25.939  1.00  0.00     0.163 HD
BRANCH  28  30
ATOM     30  C   UNL     1     -19.774  13.613 -23.981  1.00  0.00     0.082 C 
ATOM     31  C   UNL     1     -21.162  13.994 -23.436  1.00  0.00     0.025 C 
ATOM     32  C   UNL     1     -18.682  14.329 -23.191  1.00  0.00     0.025 C 
ATOM     33  C   UNL     1     -21.248  13.843 -21.909  1.00  0.00     0.002 C 
ATOM     34  C   UNL     1     -18.739  13.991 -21.703  1.00  0.00     0.002 C 
ATOM     35  C   UNL     1     -20.068  14.404 -21.143  1.00  0.00     0.000 C 
ENDBRANCH  28  30
ENDBRANCH   1  26
TORSDOF 8

ENDMDL
MODEL 4
REMARK VINA RESULT:    -8.984      1.169      1.876
REMARK INTER + INTRA:         -14.675
REMARK INTER:                 -11.370
REMARK INTRA:                  -3.304
REMARK CONF_INDEPENDENT:        2.386
REMARK UNBOUND:                 3.304
REMARK SMILES CC(C)(C)c1ccc(N(C(=O)c2c[nH]cn2)C(C(=O)NC2CCCCC2)c2cccnc2)cc1
REMARK SMILES IDX 17 1 9 2 10 3 11 4 12 5 16 6 13 7 15 8 14 9 8 10 33 11 7 12
REMARK SMILES IDX 34 13 6 14 5 15 2 16 4 17 3 18 1 19 27 20 32 21 28 22 31 23
REMARK SMILES IDX 29 24 30 25 18 26 19 27 20 28 21 30 26 31 22 32 25 33 23 34
REMARK SMILES IDX 24 35
REMARK H PARENT 20 29
REMARK Flexibility Score: inf
ROOT
ATOM      1  C   UNL     1     -20.504  15.204 -27.438  1.00  0.00     0.212 C 
ENDROOT
BRANCH   1   2
ATOM      2  N   UNL     1     -21.056  16.349 -26.777  1.00  0.00    -0.290 N 
BRANCH   2   3
ATOM      3  C   UNL     1     -22.442  16.308 -26.293  1.00  0.00     0.279 C 
ATOM      4  O   UNL     1     -22.755  15.381 -25.630  1.00  0.00    -0.267 OA
BRANCH   3   5
ATOM      5  C   UNL     1     -23.459  17.422 -26.632  1.00  0.00     0.146 A 
ATOM      6  N   UNL     1     -23.449  18.114 -27.750  1.00  0.00    -0.232 NA
ATOM      7  C   UNL     1     -24.496  17.908 -25.858  1.00  0.00     0.118 A 
ATOM      8  C   UNL     1     -24.457  19.008 -27.698  1.00  0.00     0.197 A 
ATOM      9  N   UNL     1     -25.092  18.882 -26.536  1.00  0.00    -0.350 N 
ENDBRANCH   3   5
ENDBRANCH   2   3
BRANCH   2  10
ATOM     10  C   UNL     1     -20.226  17.577 -26.770  1.00  0.00     0.045 A 
ATOM     11  C   UNL     1     -20.118  18.359 -25.636  1.00  0.00     0.027 A 
ATOM     12  C   UNL     1     -19.572  17.932 -27.953  1.00  0.00     0.027 A 
ATOM     13  C   UNL     1     -19.323  19.519 -25.665  1.00  0.00     0.006 A 
ATOM     14  C   UNL     1     -18.780  19.087 -27.982  1.00  0.00     0.006 A 
ATOM     15  C   UNL     1     -18.660  19.884 -26.836  1.00  0.00    -0.042 A 
BRANCH  15  16
ATOM     16  C   UNL     1     -17.765  21.177 -26.873  1.00  0.00    -0.013 C 
ATOM     17  C   UNL     1     -16.314  20.811 -26.572  1.00  0.00     0.016 C 
ATOM     18  C   UNL     1     -17.797  21.912 -28.230  1.00  0.00     0.016 C 
ATOM     19  C   UNL     1     -18.293  22.136 -25.800  1.00  0.00     0.016 C 
ENDBRANCH  15  16
ENDBRANCH   2  10
ENDBRANCH   1   2
BRANCH   1  20
ATOM     20  C   UNL     1     -21.422  14.346 -28.258  1.00  0.00     0.003 A 
ATOM     21  C   UNL     1     -22.077  13.282 -27.700  1.00  0.00     0.117 A 
ATOM     22  C   UNL     1     -21.556  14.632 -29.570  1.00  0.00     0.009 A 
ATOM     23  N   UNL     1     -22.853  12.482 -28.465  1.00  0.00    -0.264 NA
ATOM     24  C   UNL     1     -22.358  13.833 -30.345  1.00  0.00     0.020 A 
ATOM     25  C   UNL     1     -23.007  12.755 -29.771  1.00  0.00     0.111 A 
ENDBRANCH   1  20
BRANCH   1  26
ATOM     26  C   UNL     1     -20.016  14.204 -26.349  1.00  0.00     0.248 C 
ATOM     27  O   UNL     1     -19.383  13.221 -26.636  1.00  0.00    -0.272 OA
ATOM     28  N   UNL     1     -20.320  14.543 -24.948  1.00  0.00    -0.351 N 
ATOM     29  H   UNL     1     -20.759  15.264 -24.789  1.00  0.00     0.163 HD
BRANCH  28  30
ATOM     30  C   UNL     1     -19.918  13.723 -23.831  1.00  0.00     0.082 C 
ATOM     31  C   UNL     1     -21.033  13.789 -22.772  1.00  0.00     0.025 C 
ATOM     32  C   UNL     1     -18.632  14.334 -23.282  1.00  0.00     0.025 C 
ATOM     33  C   UNL     1     -20.574  13.243 -21.411  1.00  0.00     0.002 C 
ATOM     34  C   UNL     1     -18.156  13.622 -22.018  1.00  0.00     0.002 C 
ATOM     35  C   UNL     1     -19.212  13.722 -20.956  1.00  0.00     0.000 C 
ENDBRANCH  28  30
ENDBRANCH   1  26
TORSDOF 8

ENDMDL
MODEL 5
REMARK VINA RESULT:    -8.948      3.228      7.168
REMARK INTER + INTRA:         -14.606
REMARK INTER:                 -11.334
REMARK INTRA:                  -3.271
REMARK CONF_INDEPENDENT:        2.386
REMARK UNBOUND:                 3.271
REMARK SMILES CC(C)(C)c1ccc(N(C(=O)c2c[nH]cn2)C(C(=O)NC2CCCCC2)c2cccnc2)cc1
REMARK SMILES IDX 17 1 9 2 10 3 11 4 12 5 16 6 13 7 15 8 14 9 8 10 33 11 7 12
REMARK SMILES IDX 34 13 6 14 5 15 2 16 4 17 3 18 1 19 27 20 32 21 28 22 31 23
REMARK SMILES IDX 29 24 30 25 18 26 19 27 20 28 21 30 26 31 22 32 25 33 23 34
REMARK SMILES IDX 24 35
REMARK H PARENT 20 29
REMARK Flexibility Score: inf
ROOT
ATOM      1  C   UNL     1     -19.758  20.398 -27.197  1.00  0.00     0.212 C 
ENDROOT
BRANCH   1   2
ATOM      2  N   UNL     1     -19.923  19.832 -28.503  1.00  0.00    -0.290 N 
BRANCH   2   3
ATOM      3  C   UNL     1     -20.067  20.719 -29.665  1.00  0.00     0.279 C 
ATOM      4  O   UNL     1     -19.844  21.868 -29.498  1.00  0.00    -0.267 OA
BRANCH   3   5
ATOM      5  C   UNL     1     -20.496  20.187 -31.052  1.00  0.00     0.146 A 
ATOM      6  N   UNL     1     -21.286  19.151 -31.231  1.00  0.00    -0.232 NA
ATOM      7  C   UNL     1     -20.126  20.643 -32.303  1.00  0.00     0.118 A 
ATOM      8  C   UNL     1     -21.427  18.959 -32.558  1.00  0.00     0.197 A 
ATOM      9  N   UNL     1     -20.712  19.871 -33.211  1.00  0.00    -0.350 N 
ENDBRANCH   3   5
ENDBRANCH   2   3
BRANCH   2  10
ATOM     10  C   UNL     1     -20.100  18.362 -28.574  1.00  0.00     0.045 A 
ATOM     11  C   UNL     1     -19.017  17.519 -28.736  1.00  0.00     0.027 A 
ATOM     12  C   UNL     1     -21.399  17.854 -28.493  1.00  0.00     0.027 A 
ATOM     13  C   UNL     1     -19.221  16.129 -28.802  1.00  0.00     0.006 A 
ATOM     14  C   UNL     1     -21.603  16.470 -28.557  1.00  0.00     0.006 A 
ATOM     15  C   UNL     1     -20.511  15.607 -28.716  1.00  0.00    -0.042 A 
BRANCH  15  16
ATOM     16  C   UNL     1     -20.745  14.053 -28.783  1.00  0.00    -0.013 C 
ATOM     17  C   UNL     1     -21.381  13.569 -27.483  1.00  0.00     0.016 C 
ATOM     18  C   UNL     1     -21.658  13.616 -29.948  1.00  0.00     0.016 C 
ATOM     19  C   UNL     1     -19.379  13.387 -28.974  1.00  0.00     0.016 C 
ENDBRANCH  15  16
ENDBRANCH   2  10
ENDBRANCH   1   2
BRANCH   1  20
ATOM     20  C   UNL     1     -18.566  21.274 -26.948  1.00  0.00     0.003 A 
ATOM     21  C   UNL     1     -18.609  22.272 -26.014  1.00  0.00     0.117 A 
ATOM     22  C   UNL     1     -17.461  21.073 -27.697  1.00  0.00     0.009 A 
ATOM     23  N   UNL     1     -17.549  23.093 -25.843  1.00  0.00    -0.264 NA
ATOM     24  C   UNL     1     -16.377  21.893 -27.512  1.00  0.00     0.020 A 
ATOM     25  C   UNL     1     -16.437  22.904 -26.572  1.00  0.00     0.111 A 
ENDBRANCH   1  20
BRANCH   1  26
ATOM     26  C   UNL     1     -19.518  19.233 -26.192  1.00  0.00     0.248 C 
ATOM     27  O   UNL     1     -18.409  18.941 -25.822  1.00  0.00    -0.272 OA
ATOM     28  N   UNL     1     -20.710  18.540 -25.675  1.00  0.00    -0.351 N 
ATOM     29  H   UNL     1     -21.482  18.795 -25.954  1.00  0.00     0.163 HD
BRANCH  28  30
ATOM     30  C   UNL     1     -20.646  17.456 -24.727  1.00  0.00     0.082 C 
ATOM     31  C   UNL     1     -19.508  16.516 -25.161  1.00  0.00     0.025 C 
ATOM     32  C   UNL     1     -21.987  16.731 -24.802  1.00  0.00     0.025 C 
ATOM     33  C   UNL     1     -19.565  15.161 -24.437  1.00  0.00     0.002 C 
ATOM     34  C   UNL     1     -22.012  15.484 -23.921  1.00  0.00     0.002 C 
ATOM     35  C   UNL     1     -20.940  14.532 -24.365  1.00  0.00     0.000 C 
ENDBRANCH  28  30
ENDBRANCH   1  26
TORSDOF 8

ENDMDL
MODEL 6
REMARK VINA RESULT:    -8.548      2.257      5.789
REMARK INTER + INTRA:         -14.125
REMARK INTER:                 -10.934
REMARK INTRA:                  -3.191
REMARK CONF_INDEPENDENT:        2.386
REMARK UNBOUND:                 3.191
REMARK SMILES CC(C)(C)c1ccc(N(C(=O)c2c[nH]cn2)C(C(=O)NC2CCCCC2)c2cccnc2)cc1
REMARK SMILES IDX 17 1 9 2 10 3 11 4 12 5 16 6 13 7 15 8 14 9 8 10 33 11 7 12
REMARK SMILES IDX 34 13 6 14 5 15 2 16 4 17 3 18 1 19 27 20 32 21 28 22 31 23
REMARK SMILES IDX 29 24 30 25 18 26 19 27 20 28 21 30 26 31 22 32 25 33 23 34
REMARK SMILES IDX 24 35
REMARK H PARENT 20 29
REMARK Flexibility Score: inf
ROOT
ATOM      1  C   UNL     1     -20.990  14.915 -24.405  1.00  0.00     0.212 C 
ENDROOT
BRANCH   1   2
ATOM      2  N   UNL     1     -20.763  16.258 -24.852  1.00  0.00    -0.290 N 
BRANCH   2   3
ATOM      3  C   UNL     1     -20.386  17.291 -23.879  1.00  0.00     0.279 C 
ATOM      4  O   UNL     1     -20.523  17.031 -22.735  1.00  0.00    -0.267 OA
BRANCH   3   5
ATOM      5  C   UNL     1     -19.837  18.668 -24.320  1.00  0.00     0.146 A 
ATOM      6  N   UNL     1     -19.003  18.842 -25.323  1.00  0.00    -0.232 NA
ATOM      7  C   UNL     1     -20.070  19.910 -23.761  1.00  0.00     0.118 A 
ATOM      8  C   UNL     1     -18.721  20.157 -25.408  1.00  0.00     0.197 A 
ATOM      9  N   UNL     1     -19.372  20.807 -24.447  1.00  0.00    -0.350 N 
ENDBRANCH   3   5
ENDBRANCH   2   3
BRANCH   2  10
ATOM     10  C   UNL     1     -21.085  16.550 -26.269  1.00  0.00     0.045 A 
ATOM     11  C   UNL     1     -20.100  16.556 -27.239  1.00  0.00     0.027 A 
ATOM     12  C   UNL     1     -22.413  16.842 -26.592  1.00  0.00     0.027 A 
ATOM     13  C   UNL     1     -20.441  16.840 -28.573  1.00  0.00     0.006 A 
ATOM     14  C   UNL     1     -22.752  17.125 -27.921  1.00  0.00     0.006 A 
ATOM     15  C   UNL     1     -21.763  17.128 -28.912  1.00  0.00    -0.042 A 
BRANCH  15  16
ATOM     16  C   UNL     1     -22.150  17.441 -30.404  1.00  0.00    -0.013 C 
ATOM     17  C   UNL     1     -22.006  16.179 -31.252  1.00  0.00     0.016 C 
ATOM     18  C   UNL     1     -23.594  17.961 -30.571  1.00  0.00     0.016 C 
ATOM     19  C   UNL     1     -21.193  18.522 -30.914  1.00  0.00     0.016 C 
ENDBRANCH  15  16
ENDBRANCH   2  10
ENDBRANCH   1   2
BRANCH   1  20
ATOM     20  C   UNL     1     -20.049  14.336 -23.391  1.00  0.00     0.003 A 
ATOM     21  C   UNL     1     -20.489  13.443 -22.452  1.00  0.00     0.117 A 
ATOM     22  C   UNL     1     -18.764  14.745 -23.410  1.00  0.00     0.009 A 
ATOM     23  N   UNL     1     -19.643  12.976 -21.506  1.00  0.00    -0.264 NA
ATOM     24  C   UNL     1     -17.899  14.257 -22.463  1.00  0.00     0.020 A 
ATOM     25  C   UNL     1     -18.358  13.365 -21.513  1.00  0.00     0.111 A 
ENDBRANCH   1  20
BRANCH   1  26
ATOM     26  C   UNL     1     -20.787  13.960 -25.618  1.00  0.00     0.248 C 
ATOM     27  O   UNL     1     -19.773  13.324 -25.753  1.00  0.00    -0.272 OA
ATOM     28  N   UNL     1     -21.910  13.831 -26.562  1.00  0.00    -0.351 N 
ATOM     29  H   UNL     1     -22.621  14.291 -26.415  1.00  0.00     0.163 HD
BRANCH  28  30
ATOM     30  C   UNL     1     -21.874  12.973 -27.721  1.00  0.00     0.082 C 
ATOM     31  C   UNL     1     -20.613  13.325 -28.530  1.00  0.00     0.025 C 
ATOM     32  C   UNL     1     -23.128  13.285 -28.533  1.00  0.00     0.025 C 
ATOM     33  C   UNL     1     -20.646  12.726 -29.946  1.00  0.00     0.002 C 
ATOM     34  C   UNL     1     -23.158  12.519 -29.854  1.00  0.00     0.002 C 
ATOM     35  C   UNL     1     -21.960  12.890 -30.679  1.00  0.00     0.000 C 
ENDBRANCH  28  30
ENDBRANCH   1  26
TORSDOF 8

ENDMDL
MODEL 7
REMARK VINA RESULT:    -8.349      3.366      7.053
REMARK INTER + INTRA:         -13.984
REMARK INTER:                 -10.736
REMARK INTRA:                  -3.248
REMARK CONF_INDEPENDENT:        2.386
REMARK UNBOUND:                 3.248
REMARK SMILES CC(C)(C)c1ccc(N(C(=O)c2c[nH]cn2)C(C(=O)NC2CCCCC2)c2cccnc2)cc1
REMARK SMILES IDX 17 1 9 2 10 3 11 4 12 5 16 6 13 7 15 8 14 9 8 10 33 11 7 12
REMARK SMILES IDX 34 13 6 14 5 15 2 16 4 17 3 18 1 19 27 20 32 21 28 22 31 23
REMARK SMILES IDX 29 24 30 25 18 26 19 27 20 28 21 30 26 31 22 32 25 33 23 34
REMARK SMILES IDX 24 35
REMARK H PARENT 20 29
REMARK Flexibility Score: inf
ROOT
ATOM      1  C   UNL     1     -19.609  20.705 -26.801  1.00  0.00     0.212 C 
ENDROOT
BRANCH   1   2
ATOM      2  N   UNL     1     -19.967  20.325 -28.135  1.00  0.00    -0.290 N 
BRANCH   2   3
ATOM      3  C   UNL     1     -20.147  21.362 -29.160  1.00  0.00     0.279 C 
ATOM      4  O   UNL     1     -19.171  21.869 -29.593  1.00  0.00    -0.267 OA
BRANCH   3   5
ATOM      5  C   UNL     1     -21.548  21.785 -29.656  1.00  0.00     0.146 A 
ATOM      6  N   UNL     1     -22.671  21.223 -29.263  1.00  0.00    -0.232 NA
ATOM      7  C   UNL     1     -21.880  22.755 -30.584  1.00  0.00     0.118 A 
ATOM      8  C   UNL     1     -23.689  21.823 -29.911  1.00  0.00     0.197 A 
ATOM      9  N   UNL     1     -23.200  22.758 -30.723  1.00  0.00    -0.350 N 
ENDBRANCH   3   5
ENDBRANCH   2   3
BRANCH   2  10
ATOM     10  C   UNL     1     -20.292  18.897 -28.355  1.00  0.00     0.045 A 
ATOM     11  C   UNL     1     -21.579  18.423 -28.182  1.00  0.00     0.027 A 
ATOM     12  C   UNL     1     -19.253  18.037 -28.722  1.00  0.00     0.027 A 
ATOM     13  C   UNL     1     -21.852  17.060 -28.396  1.00  0.00     0.006 A 
ATOM     14  C   UNL     1     -19.526  16.679 -28.936  1.00  0.00     0.006 A 
ATOM     15  C   UNL     1     -20.827  16.191 -28.769  1.00  0.00    -0.042 A 
BRANCH  15  16
ATOM     16  C   UNL     1     -21.128  14.666 -29.016  1.00  0.00    -0.013 C 
ATOM     17  C   UNL     1     -21.886  14.495 -30.329  1.00  0.00     0.016 C 
ATOM     18  C   UNL     1     -19.860  13.789 -29.083  1.00  0.00     0.016 C 
ATOM     19  C   UNL     1     -21.989  14.170 -27.850  1.00  0.00     0.016 C 
ENDBRANCH  15  16
ENDBRANCH   2  10
ENDBRANCH   1   2
BRANCH   1  20
ATOM     20  C   UNL     1     -18.324  21.451 -26.595  1.00  0.00     0.003 A 
ATOM     21  C   UNL     1     -17.244  21.231 -27.406  1.00  0.00     0.117 A 
ATOM     22  C   UNL     1     -18.251  22.320 -25.565  1.00  0.00     0.009 A 
ATOM     23  N   UNL     1     -16.074  21.866 -27.171  1.00  0.00    -0.264 NA
ATOM     24  C   UNL     1     -17.070  22.980 -25.336  1.00  0.00     0.020 A 
ATOM     25  C   UNL     1     -15.984  22.741 -26.157  1.00  0.00     0.111 A 
ENDBRANCH   1  20
BRANCH   1  26
ATOM     26  C   UNL     1     -19.364  19.407 -25.977  1.00  0.00     0.248 C 
ATOM     27  O   UNL     1     -18.257  18.959 -25.825  1.00  0.00    -0.272 OA
ATOM     28  N   UNL     1     -20.542  18.782 -25.350  1.00  0.00    -0.351 N 
ATOM     29  H   UNL     1     -21.310  19.147 -25.471  1.00  0.00     0.163 HD
BRANCH  28  30
ATOM     30  C   UNL     1     -20.468  17.588 -24.545  1.00  0.00     0.082 C 
ATOM     31  C   UNL     1     -19.743  16.508 -25.367  1.00  0.00     0.025 C 
ATOM     32  C   UNL     1     -21.907  17.162 -24.265  1.00  0.00     0.025 C 
ATOM     33  C   UNL     1     -19.907  15.106 -24.759  1.00  0.00     0.002 C 
ATOM     34  C   UNL     1     -21.973  15.836 -23.509  1.00  0.00     0.002 C 
ATOM     35  C   UNL     1     -21.315  14.759 -24.322  1.00  0.00     0.000 C 
ENDBRANCH  28  30
ENDBRANCH   1  26
TORSDOF 8

ENDMDL
MODEL 8
REMARK VINA RESULT:    -8.338      1.285      4.208
REMARK INTER + INTRA:         -14.029
REMARK INTER:                 -10.724
REMARK INTRA:                  -3.305
REMARK CONF_INDEPENDENT:        2.386
REMARK UNBOUND:                 3.305
REMARK SMILES CC(C)(C)c1ccc(N(C(=O)c2c[nH]cn2)C(C(=O)NC2CCCCC2)c2cccnc2)cc1
REMARK SMILES IDX 17 1 9 2 10 3 11 4 12 5 16 6 13 7 15 8 14 9 8 10 33 11 7 12
REMARK SMILES IDX 34 13 6 14 5 15 2 16 4 17 3 18 1 19 27 20 32 21 28 22 31 23
REMARK SMILES IDX 29 24 30 25 18 26 19 27 20 28 21 30 26 31 22 32 25 33 23 34
REMARK SMILES IDX 24 35
REMARK H PARENT 20 29
REMARK Flexibility Score: inf
ROOT
ATOM      1  C   UNL     1     -22.183  16.180 -26.048  1.00  0.00     0.212 C 
ENDROOT
BRANCH   1   2
ATOM      2  N   UNL     1     -20.943  16.088 -26.760  1.00  0.00    -0.290 N 
BRANCH   2   3
ATOM      3  C   UNL     1     -20.421  14.768 -27.139  1.00  0.00     0.279 C 
ATOM      4  O   UNL     1     -19.378  14.449 -26.683  1.00  0.00    -0.267 OA
BRANCH   3   5
ATOM      5  C   UNL     1     -21.190  13.829 -28.095  1.00  0.00     0.146 A 
ATOM      6  N   UNL     1     -20.753  13.468 -29.283  1.00  0.00    -0.232 NA
ATOM      7  C   UNL     1     -22.431  13.246 -27.921  1.00  0.00     0.118 A 
ATOM      8  C   UNL     1     -21.683  12.669 -29.845  1.00  0.00     0.197 A 
ATOM      9  N   UNL     1     -22.711  12.540 -29.010  1.00  0.00    -0.350 N 
ENDBRANCH   3   5
ENDBRANCH   2   3
BRANCH   2  10
ATOM     10  C   UNL     1     -20.178  17.346 -26.929  1.00  0.00     0.045 A 
ATOM     11  C   UNL     1     -20.064  17.951 -28.166  1.00  0.00     0.027 A 
ATOM     12  C   UNL     1     -19.557  17.892 -25.802  1.00  0.00     0.027 A 
ATOM     13  C   UNL     1     -19.328  19.144 -28.291  1.00  0.00     0.006 A 
ATOM     14  C   UNL     1     -18.826  19.080 -25.926  1.00  0.00     0.006 A 
ATOM     15  C   UNL     1     -18.708  19.704 -27.174  1.00  0.00    -0.042 A 
BRANCH  15  16
ATOM     16  C   UNL     1     -17.889  21.040 -27.308  1.00  0.00    -0.013 C 
ATOM     17  C   UNL     1     -16.401  20.725 -27.433  1.00  0.00     0.016 C 
ATOM     18  C   UNL     1     -18.297  21.895 -28.527  1.00  0.00     0.016 C 
ATOM     19  C   UNL     1     -18.142  21.866 -26.042  1.00  0.00     0.016 C 
ENDBRANCH  15  16
ENDBRANCH   2  10
ENDBRANCH   1   2
BRANCH   1  20
ATOM     20  C   UNL     1     -22.872  17.511 -25.991  1.00  0.00     0.003 A 
ATOM     21  C   UNL     1     -22.609  18.398 -24.983  1.00  0.00     0.117 A 
ATOM     22  C   UNL     1     -23.785  17.795 -26.943  1.00  0.00     0.009 A 
ATOM     23  N   UNL     1     -23.282  19.568 -24.911  1.00  0.00    -0.264 NA
ATOM     24  C   UNL     1     -24.457  18.990 -26.882  1.00  0.00     0.020 A 
ATOM     25  C   UNL     1     -24.189  19.873 -25.853  1.00  0.00     0.111 A 
ENDBRANCH   1  20
BRANCH   1  26
ATOM     26  C   UNL     1     -21.899  15.899 -24.543  1.00  0.00     0.248 C 
ATOM     27  O   UNL     1     -22.766  15.990 -23.712  1.00  0.00    -0.272 OA
ATOM     28  N   UNL     1     -20.535  15.467 -24.190  1.00  0.00    -0.351 N 
ATOM     29  H   UNL     1     -19.954  15.399 -24.819  1.00  0.00     0.163 HD
BRANCH  28  30
ATOM     30  C   UNL     1     -20.129  15.156 -22.842  1.00  0.00     0.082 C 
ATOM     31  C   UNL     1     -18.713  14.554 -22.903  1.00  0.00     0.025 C 
ATOM     32  C   UNL     1     -21.120  14.121 -22.316  1.00  0.00     0.025 C 
ATOM     33  C   UNL     1     -18.314  13.872 -21.585  1.00  0.00     0.002 C 
ATOM     34  C   UNL     1     -20.736  13.618 -20.926  1.00  0.00     0.002 C 
ATOM     35  C   UNL     1     -19.378  12.981 -20.979  1.00  0.00     0.000 C 
ENDBRANCH  28  30
ENDBRANCH   1  26
TORSDOF 8

ENDMDL
MODEL 9
REMARK VINA RESULT:    -7.846      2.405      7.339
REMARK INTER + INTRA:         -14.019
REMARK INTER:                 -10.232
REMARK INTRA:                  -3.787
REMARK CONF_INDEPENDENT:        2.386
REMARK UNBOUND:                 3.787
REMARK SMILES CC(C)(C)c1ccc(N(C(=O)c2c[nH]cn2)C(C(=O)NC2CCCCC2)c2cccnc2)cc1
REMARK SMILES IDX 17 1 9 2 10 3 11 4 12 5 16 6 13 7 15 8 14 9 8 10 33 11 7 12
REMARK SMILES IDX 34 13 6 14 5 15 2 16 4 17 3 18 1 19 27 20 32 21 28 22 31 23
REMARK SMILES IDX 29 24 30 25 18 26 19 27 20 28 21 30 26 31 22 32 25 33 23 34
REMARK SMILES IDX 24 35
REMARK H PARENT 20 29
REMARK Flexibility Score: inf
ROOT
ATOM      1  C   UNL     1     -19.519  16.451 -27.831  1.00  0.00     0.212 C 
ENDROOT
BRANCH   1   2
ATOM      2  N   UNL     1     -19.708  15.104 -27.378  1.00  0.00    -0.290 N 
BRANCH   2   3
ATOM      3  C   UNL     1     -19.720  14.007 -28.354  1.00  0.00     0.279 C 
ATOM      4  O   UNL     1     -18.680  13.677 -28.809  1.00  0.00    -0.267 OA
BRANCH   3   5
ATOM      5  C   UNL     1     -21.031  13.307 -28.781  1.00  0.00     0.146 A 
ATOM      6  N   UNL     1     -22.137  13.318 -28.069  1.00  0.00    -0.232 NA
ATOM      7  C   UNL     1     -21.276  12.545 -29.908  1.00  0.00     0.118 A 
ATOM      8  C   UNL     1     -23.065  12.595 -28.728  1.00  0.00     0.197 A 
ATOM      9  N   UNL     1     -22.532  12.119 -29.851  1.00  0.00    -0.350 N 
ENDBRANCH   3   5
ENDBRANCH   2   3
BRANCH   2  10
ATOM     10  C   UNL     1     -20.044  14.926 -25.946  1.00  0.00     0.045 A 
ATOM     11  C   UNL     1     -21.322  14.582 -25.550  1.00  0.00     0.027 A 
ATOM     12  C   UNL     1     -19.032  15.136 -25.005  1.00  0.00     0.027 A 
ATOM     13  C   UNL     1     -21.606  14.423 -24.182  1.00  0.00     0.006 A 
ATOM     14  C   UNL     1     -19.315  14.977 -23.642  1.00  0.00     0.006 A 
ATOM     15  C   UNL     1     -20.606  14.624 -23.231  1.00  0.00    -0.042 A 
BRANCH  15  16
ATOM     16  C   UNL     1     -20.918  14.442 -21.700  1.00  0.00    -0.013 C 
ATOM     17  C   UNL     1     -19.767  13.703 -21.022  1.00  0.00     0.016 C 
ATOM     18  C   UNL     1     -21.131  15.774 -20.951  1.00  0.00     0.016 C 
ATOM     19  C   UNL     1     -22.205  13.619 -21.584  1.00  0.00     0.016 C 
ENDBRANCH  15  16
ENDBRANCH   2  10
ENDBRANCH   1   2
BRANCH   1  20
ATOM     20  C   UNL     1     -19.797  17.569 -26.870  1.00  0.00     0.003 A 
ATOM     21  C   UNL     1     -18.774  18.275 -26.297  1.00  0.00     0.117 A 
ATOM     22  C   UNL     1     -21.083  17.835 -26.559  1.00  0.00     0.009 A 
ATOM     23  N   UNL     1     -19.037  19.239 -25.387  1.00  0.00    -0.264 NA
ATOM     24  C   UNL     1     -21.353  18.826 -25.649  1.00  0.00     0.020 A 
ATOM     25  C   UNL     1     -20.311  19.525 -25.071  1.00  0.00     0.111 A 
ENDBRANCH   1  20
BRANCH   1  26
ATOM     26  C   UNL     1     -20.554  16.731 -28.960  1.00  0.00     0.248 C 
ATOM     27  O   UNL     1     -20.299  17.469 -29.877  1.00  0.00    -0.272 OA
ATOM     28  N   UNL     1     -21.838  16.015 -28.882  1.00  0.00    -0.351 N 
ATOM     29  H   UNL     1     -21.969  15.484 -28.219  1.00  0.00     0.163 HD
BRANCH  28  30
ATOM     30  C   UNL     1     -22.886  16.160 -29.863  1.00  0.00     0.082 C 
ATOM     31  C   UNL     1     -22.343  15.657 -31.212  1.00  0.00     0.025 C 
ATOM     32  C   UNL     1     -23.204  17.650 -29.944  1.00  0.00     0.025 C 
ATOM     33  C   UNL     1     -23.236  16.075 -32.390  1.00  0.00     0.002 C 
ATOM     34  C   UNL     1     -24.228  17.957 -31.034  1.00  0.00     0.002 C 
ATOM     35  C   UNL     1     -23.691  17.520 -32.366  1.00  0.00     0.000 C 
ENDBRANCH  28  30
ENDBRANCH   1  26
TORSDOF 8

ENDMDL
