MODEL 1
REMARK VINA RESULT:    -9.377      0.000      0.000
REMARK INTER + INTRA:         -14.326
REMARK INTER:                 -11.764
REMARK INTRA:                  -2.562
REMARK CONF_INDEPENDENT:        2.386
REMARK UNBOUND:                 2.562
REMARK SMILES CC(C)(C)c1ccc(N(C(=O)c2c[nH]cn2)C(C(=O)NC2CCCCC2)c2cccnc2)cc1
REMARK SMILES IDX 17 1 9 2 10 3 11 4 12 5 16 6 13 7 15 8 14 9 8 10 33 11 7 12
REMARK SMILES IDX 34 13 6 14 5 15 2 16 4 17 3 18 1 19 27 20 32 21 28 22 31 23
REMARK SMILES IDX 29 24 30 25 18 26 19 27 20 28 21 30 26 31 22 32 25 33 23 34
REMARK SMILES IDX 24 35
REMARK H PARENT 20 29
REMARK Flexibility Score: inf
ROOT
ATOM      1  C   UNL     1     -20.193  15.266 -27.680  1.00  0.00     0.212 C 
ENDROOT
BRANCH   1   2
ATOM      2  N   UNL     1     -20.325  16.565 -28.271  1.00  0.00    -0.290 N 
BRANCH   2   3
ATOM      3  C   UNL     1     -19.522  17.680 -27.754  1.00  0.00     0.279 C 
ATOM      4  O   UNL     1     -18.598  18.028 -28.403  1.00  0.00    -0.267 OA
BRANCH   3   5
ATOM      5  C   UNL     1     -19.858  18.377 -26.415  1.00  0.00     0.146 A 
ATOM      6  N   UNL     1     -18.997  18.542 -25.434  1.00  0.00    -0.232 NA
ATOM      7  C   UNL     1     -21.065  18.901 -25.994  1.00  0.00     0.118 A 
ATOM      8  C   UNL     1     -19.633  19.163 -24.420  1.00  0.00     0.197 A 
ATOM      9  N   UNL     1     -20.900  19.377 -24.765  1.00  0.00    -0.350 N 
ENDBRANCH   3   5
ENDBRANCH   2   3
BRANCH   2  10
ATOM     10  C   UNL     1     -21.400  16.731 -29.277  1.00  0.00     0.045 A 
ATOM     11  C   UNL     1     -22.524  17.486 -29.001  1.00  0.00     0.027 A 
ATOM     12  C   UNL     1     -21.253  16.083 -30.506  1.00  0.00     0.027 A 
ATOM     13  C   UNL     1     -23.527  17.621 -29.979  1.00  0.00     0.006 A 
ATOM     14  C   UNL     1     -22.252  16.218 -31.480  1.00  0.00     0.006 A 
ATOM     15  C   UNL     1     -23.392  16.985 -31.212  1.00  0.00    -0.042 A 
BRANCH  15  16
ATOM     16  C   UNL     1     -24.508  17.138 -32.311  1.00  0.00    -0.013 C 
ATOM     17  C   UNL     1     -25.687  16.227 -31.981  1.00  0.00     0.016 C 
ATOM     18  C   UNL     1     -25.047  18.578 -32.447  1.00  0.00     0.016 C 
ATOM     19  C   UNL     1     -23.895  16.729 -33.654  1.00  0.00     0.016 C 
ENDBRANCH  15  16
ENDBRANCH   2  10
ENDBRANCH   1   2
BRANCH   1  20
ATOM     20  C   UNL     1     -21.135  14.186 -28.122  1.00  0.00     0.003 A 
ATOM     21  C   UNL     1     -22.316  13.969 -27.464  1.00  0.00     0.117 A 
ATOM     22  C   UNL     1     -20.771  13.411 -29.165  1.00  0.00     0.009 A 
ATOM     23  N   UNL     1     -23.127  12.953 -27.835  1.00  0.00    -0.264 NA
ATOM     24  C   UNL     1     -21.602  12.391 -29.555  1.00  0.00     0.020 A 
ATOM     25  C   UNL     1     -22.786  12.176 -28.876  1.00  0.00     0.111 A 
ENDBRANCH   1  20
BRANCH   1  26
ATOM     26  C   UNL     1     -20.527  15.387 -26.164  1.00  0.00     0.248 C 
ATOM     27  O   UNL     1     -21.566  15.864 -25.786  1.00  0.00    -0.272 OA
ATOM     28  N   UNL     1     -19.539  14.844 -25.217  1.00  0.00    -0.351 N 
ATOM     29  H   UNL     1     -18.819  14.496 -25.533  1.00  0.00     0.163 HD
BRANCH  28  30
ATOM     30  C   UNL     1     -19.718  14.869 -23.786  1.00  0.00     0.082 C 
ATOM     31  C   UNL     1     -18.410  14.379 -23.138  1.00  0.00     0.025 C 
ATOM     32  C   UNL     1     -20.857  13.903 -23.473  1.00  0.00     0.025 C 
ATOM     33  C   UNL     1     -18.592  14.037 -21.651  1.00  0.00     0.002 C 
ATOM     34  C   UNL     1     -21.077  13.749 -21.969  1.00  0.00     0.002 C 
ATOM     35  C   UNL     1     -19.827  13.222 -21.328  1.00  0.00     0.000 C 
ENDBRANCH  28  30
ENDBRANCH   1  26
TORSDOF 8

ENDMDL
MODEL 2
REMARK VINA RESULT:    -9.332      2.518      4.657
REMARK INTER + INTRA:         -15.018
REMARK INTER:                 -11.719
REMARK INTRA:                  -3.299
REMARK CONF_INDEPENDENT:        2.386
REMARK UNBOUND:                 3.299
REMARK SMILES CC(C)(C)c1ccc(N(C(=O)c2c[nH]cn2)C(C(=O)NC2CCCCC2)c2cccnc2)cc1
REMARK SMILES IDX 17 1 9 2 10 3 11 4 12 5 16 6 13 7 15 8 14 9 8 10 33 11 7 12
REMARK SMILES IDX 34 13 6 14 5 15 2 16 4 17 3 18 1 19 27 20 32 21 28 22 31 23
REMARK SMILES IDX 29 24 30 25 18 26 19 27 20 28 21 30 26 31 22 32 25 33 23 34
REMARK SMILES IDX 24 35
REMARK H PARENT 20 29
REMARK Flexibility Score: inf
ROOT
ATOM      1  C   UNL     1     -20.553  15.167 -27.473  1.00  0.00     0.212 C 
ENDROOT
BRANCH   1   2
ATOM      2  N   UNL     1     -21.082  16.348 -26.857  1.00  0.00    -0.290 N 
BRANCH   2   3
ATOM      3  C   UNL     1     -22.439  16.326 -26.295  1.00  0.00     0.279 C 
ATOM      4  O   UNL     1     -23.291  15.847 -26.959  1.00  0.00    -0.267 OA
BRANCH   3   5
ATOM      5  C   UNL     1     -22.753  16.907 -24.897  1.00  0.00     0.146 A 
ATOM      6  N   UNL     1     -22.676  16.218 -23.779  1.00  0.00    -0.232 NA
ATOM      7  C   UNL     1     -23.187  18.177 -24.567  1.00  0.00     0.118 A 
ATOM      8  C   UNL     1     -23.039  17.027 -22.764  1.00  0.00     0.197 A 
ATOM      9  N   UNL     1     -23.356  18.225 -23.251  1.00  0.00    -0.350 N 
ENDBRANCH   3   5
ENDBRANCH   2   3
BRANCH   2  10
ATOM     10  C   UNL     1     -20.268  17.580 -26.975  1.00  0.00     0.045 A 
ATOM     11  C   UNL     1     -19.983  18.133 -28.209  1.00  0.00     0.027 A 
ATOM     12  C   UNL     1     -19.777  18.156 -25.799  1.00  0.00     0.027 A 
ATOM     13  C   UNL     1     -19.205  19.302 -28.284  1.00  0.00     0.006 A 
ATOM     14  C   UNL     1     -19.003  19.321 -25.874  1.00  0.00     0.006 A 
ATOM     15  C   UNL     1     -18.713  19.892 -27.120  1.00  0.00    -0.042 A 
BRANCH  15  16
ATOM     16  C   UNL     1     -17.847  21.203 -27.198  1.00  0.00    -0.013 C 
ATOM     17  C   UNL     1     -18.245  22.012 -28.429  1.00  0.00     0.016 C 
ATOM     18  C   UNL     1     -17.997  22.116 -25.962  1.00  0.00     0.016 C 
ATOM     19  C   UNL     1     -16.378  20.782 -27.304  1.00  0.00     0.016 C 
ENDBRANCH  15  16
ENDBRANCH   2  10
ENDBRANCH   1   2
BRANCH   1  20
ATOM     20  C   UNL     1     -21.485  14.304 -28.270  1.00  0.00     0.003 A 
ATOM     21  C   UNL     1     -22.130  13.243 -27.694  1.00  0.00     0.117 A 
ATOM     22  C   UNL     1     -21.642  14.581 -29.582  1.00  0.00     0.009 A 
ATOM     23  N   UNL     1     -22.919  12.438 -28.440  1.00  0.00    -0.264 NA
ATOM     24  C   UNL     1     -22.458  13.776 -30.336  1.00  0.00     0.020 A 
ATOM     25  C   UNL     1     -23.096  12.702 -29.745  1.00  0.00     0.111 A 
ENDBRANCH   1  20
BRANCH   1  26
ATOM     26  C   UNL     1     -20.099  14.194 -26.344  1.00  0.00     0.248 C 
ATOM     27  O   UNL     1     -19.422  13.227 -26.583  1.00  0.00    -0.272 OA
ATOM     28  N   UNL     1     -20.491  14.540 -24.967  1.00  0.00    -0.351 N 
ATOM     29  H   UNL     1     -20.959  15.250 -24.843  1.00  0.00     0.163 HD
BRANCH  28  30
ATOM     30  C   UNL     1     -20.130  13.745 -23.819  1.00  0.00     0.082 C 
ATOM     31  C   UNL     1     -21.233  13.919 -22.759  1.00  0.00     0.025 C 
ATOM     32  C   UNL     1     -18.808  14.304 -23.301  1.00  0.00     0.025 C 
ATOM     33  C   UNL     1     -20.798  13.404 -21.378  1.00  0.00     0.002 C 
ATOM     34  C   UNL     1     -18.365  13.618 -22.010  1.00  0.00     0.002 C 
ATOM     35  C   UNL     1     -19.407  13.822 -20.949  1.00  0.00     0.000 C 
ENDBRANCH  28  30
ENDBRANCH   1  26
TORSDOF 8

ENDMDL
MODEL 3
REMARK VINA RESULT:    -9.264      2.188      5.185
REMARK INTER + INTRA:         -14.172
REMARK INTER:                 -11.650
REMARK INTRA:                  -2.522
REMARK CONF_INDEPENDENT:        2.386
REMARK UNBOUND:                 2.522
REMARK SMILES CC(C)(C)c1ccc(N(C(=O)c2c[nH]cn2)C(C(=O)NC2CCCCC2)c2cccnc2)cc1
REMARK SMILES IDX 17 1 9 2 10 3 11 4 12 5 16 6 13 7 15 8 14 9 8 10 33 11 7 12
REMARK SMILES IDX 34 13 6 14 5 15 2 16 4 17 3 18 1 19 27 20 32 21 28 22 31 23
REMARK SMILES IDX 29 24 30 25 18 26 19 27 20 28 21 30 26 31 22 32 25 33 23 34
REMARK SMILES IDX 24 35
REMARK H PARENT 20 29
REMARK Flexibility Score: inf
ROOT
ATOM      1  C   UNL     1     -20.483  15.890 -27.500  1.00  0.00     0.212 C 
ENDROOT
BRANCH   1   2
ATOM      2  N   UNL     1     -20.992  17.158 -27.931  1.00  0.00    -0.290 N 
BRANCH   2   3
ATOM      3  C   UNL     1     -22.269  17.218 -28.656  1.00  0.00     0.279 C 
ATOM      4  O   UNL     1     -23.219  17.566 -28.047  1.00  0.00    -0.267 OA
BRANCH   3   5
ATOM      5  C   UNL     1     -22.378  16.838 -30.151  1.00  0.00     0.146 A 
ATOM      6  N   UNL     1     -22.814  15.676 -30.586  1.00  0.00    -0.232 NA
ATOM      7  C   UNL     1     -22.026  17.585 -31.259  1.00  0.00     0.118 A 
ATOM      8  C   UNL     1     -22.753  15.685 -31.933  1.00  0.00     0.197 A 
ATOM      9  N   UNL     1     -22.265  16.854 -32.341  1.00  0.00    -0.350 N 
ENDBRANCH   3   5
ENDBRANCH   2   3
BRANCH   2  10
ATOM     10  C   UNL     1     -20.101  18.329 -27.753  1.00  0.00     0.045 A 
ATOM     11  C   UNL     1     -20.225  19.449 -28.553  1.00  0.00     0.027 A 
ATOM     12  C   UNL     1     -19.114  18.256 -26.766  1.00  0.00     0.027 A 
ATOM     13  C   UNL     1     -19.360  20.541 -28.358  1.00  0.00     0.006 A 
ATOM     14  C   UNL     1     -18.253  19.344 -26.572  1.00  0.00     0.006 A 
ATOM     15  C   UNL     1     -18.375  20.486 -27.373  1.00  0.00    -0.042 A 
BRANCH  15  16
ATOM     16  C   UNL     1     -17.408  21.707 -27.147  1.00  0.00    -0.013 C 
ATOM     17  C   UNL     1     -16.275  21.303 -26.209  1.00  0.00     0.016 C 
ATOM     18  C   UNL     1     -16.777  22.243 -28.450  1.00  0.00     0.016 C 
ATOM     19  C   UNL     1     -18.229  22.837 -26.516  1.00  0.00     0.016 C 
ENDBRANCH  15  16
ENDBRANCH   2  10
ENDBRANCH   1   2
BRANCH   1  20
ATOM     20  C   UNL     1     -21.110  14.647 -28.056  1.00  0.00     0.003 A 
ATOM     21  C   UNL     1     -22.255  14.131 -27.511  1.00  0.00     0.117 A 
ATOM     22  C   UNL     1     -20.495  14.030 -29.087  1.00  0.00     0.009 A 
ATOM     23  N   UNL     1     -22.775  12.976 -27.983  1.00  0.00    -0.264 NA
ATOM     24  C   UNL     1     -21.032  12.868 -29.580  1.00  0.00     0.020 A 
ATOM     25  C   UNL     1     -22.182  12.352 -29.015  1.00  0.00     0.111 A 
ENDBRANCH   1  20
BRANCH   1  26
ATOM     26  C   UNL     1     -20.773  15.745 -25.977  1.00  0.00     0.248 C 
ATOM     27  O   UNL     1     -21.858  15.992 -25.517  1.00  0.00    -0.272 OA
ATOM     28  N   UNL     1     -19.674  15.244 -25.133  1.00  0.00    -0.351 N 
ATOM     29  H   UNL     1     -18.922  15.064 -25.507  1.00  0.00     0.163 HD
BRANCH  28  30
ATOM     30  C   UNL     1     -19.799  15.042 -23.710  1.00  0.00     0.082 C 
ATOM     31  C   UNL     1     -18.451  14.515 -23.188  1.00  0.00     0.025 C 
ATOM     32  C   UNL     1     -20.889  13.992 -23.513  1.00  0.00     0.025 C 
ATOM     33  C   UNL     1     -18.562  13.941 -21.767  1.00  0.00     0.002 C 
ATOM     34  C   UNL     1     -21.045  13.600 -22.045  1.00  0.00     0.002 C 
ATOM     35  C   UNL     1     -19.752  13.035 -21.534  1.00  0.00     0.000 C 
ENDBRANCH  28  30
ENDBRANCH   1  26
TORSDOF 8

ENDMDL
MODEL 4
REMARK VINA RESULT:    -9.040      2.429      4.885
REMARK INTER + INTRA:         -14.695
REMARK INTER:                 -11.426
REMARK INTRA:                  -3.269
REMARK CONF_INDEPENDENT:        2.386
REMARK UNBOUND:                 3.269
REMARK SMILES CC(C)(C)c1ccc(N(C(=O)c2c[nH]cn2)C(C(=O)NC2CCCCC2)c2cccnc2)cc1
REMARK SMILES IDX 17 1 9 2 10 3 11 4 12 5 16 6 13 7 15 8 14 9 8 10 33 11 7 12
REMARK SMILES IDX 34 13 6 14 5 15 2 16 4 17 3 18 1 19 27 20 32 21 28 22 31 23
REMARK SMILES IDX 29 24 30 25 18 26 19 27 20 28 21 30 26 31 22 32 25 33 23 34
REMARK SMILES IDX 24 35
REMARK H PARENT 20 29
REMARK Flexibility Score: inf
ROOT
ATOM      1  C   UNL     1     -20.476  15.147 -27.447  1.00  0.00     0.212 C 
ENDROOT
BRANCH   1   2
ATOM      2  N   UNL     1     -21.011  16.309 -26.801  1.00  0.00    -0.290 N 
BRANCH   2   3
ATOM      3  C   UNL     1     -22.387  16.283 -26.286  1.00  0.00     0.279 C 
ATOM      4  O   UNL     1     -22.690  15.367 -25.603  1.00  0.00    -0.267 OA
BRANCH   3   5
ATOM      5  C   UNL     1     -23.405  17.397 -26.618  1.00  0.00     0.146 A 
ATOM      6  N   UNL     1     -23.441  18.046 -27.762  1.00  0.00    -0.232 NA
ATOM      7  C   UNL     1     -24.397  17.928 -25.815  1.00  0.00     0.118 A 
ATOM      8  C   UNL     1     -24.433  18.956 -27.696  1.00  0.00     0.197 A 
ATOM      9  N   UNL     1     -25.013  18.884 -26.500  1.00  0.00    -0.350 N 
ENDBRANCH   3   5
ENDBRANCH   2   3
BRANCH   2  10
ATOM     10  C   UNL     1     -20.179  17.534 -26.840  1.00  0.00     0.045 A 
ATOM     11  C   UNL     1     -19.421  17.847 -27.952  1.00  0.00     0.027 A 
ATOM     12  C   UNL     1     -20.166  18.354 -25.708  1.00  0.00     0.027 A 
ATOM     13  C   UNL     1     -18.640  19.017 -27.955  1.00  0.00     0.006 A 
ATOM     14  C   UNL     1     -19.388  19.520 -25.711  1.00  0.00     0.006 A 
ATOM     15  C   UNL     1     -18.621  19.848 -26.835  1.00  0.00    -0.042 A 
BRANCH  15  16
ATOM     16  C   UNL     1     -17.754  21.161 -26.835  1.00  0.00    -0.013 C 
ATOM     17  C   UNL     1     -17.861  21.852 -28.191  1.00  0.00     0.016 C 
ATOM     18  C   UNL     1     -18.173  22.177 -25.751  1.00  0.00     0.016 C 
ATOM     19  C   UNL     1     -16.300  20.755 -26.571  1.00  0.00     0.016 C 
ENDBRANCH  15  16
ENDBRANCH   2  10
ENDBRANCH   1   2
BRANCH   1  20
ATOM     20  C   UNL     1     -21.403  14.301 -28.268  1.00  0.00     0.003 A 
ATOM     21  C   UNL     1     -22.127  13.290 -27.696  1.00  0.00     0.117 A 
ATOM     22  C   UNL     1     -21.478  14.543 -29.594  1.00  0.00     0.009 A 
ATOM     23  N   UNL     1     -22.912  12.497 -28.460  1.00  0.00    -0.264 NA
ATOM     24  C   UNL     1     -22.289  13.751 -30.367  1.00  0.00     0.020 A 
ATOM     25  C   UNL     1     -23.006  12.727 -29.779  1.00  0.00     0.111 A 
ENDBRANCH   1  20
BRANCH   1  26
ATOM     26  C   UNL     1     -20.019  14.148 -26.344  1.00  0.00     0.248 C 
ATOM     27  O   UNL     1     -19.444  13.126 -26.621  1.00  0.00    -0.272 OA
ATOM     28  N   UNL     1     -20.276  14.533 -24.946  1.00  0.00    -0.351 N 
ATOM     29  H   UNL     1     -20.673  15.280 -24.795  1.00  0.00     0.163 HD
BRANCH  28  30
ATOM     30  C   UNL     1     -19.894  13.718 -23.818  1.00  0.00     0.082 C 
ATOM     31  C   UNL     1     -21.031  13.784 -22.783  1.00  0.00     0.025 C 
ATOM     32  C   UNL     1     -18.622  14.335 -23.245  1.00  0.00     0.025 C 
ATOM     33  C   UNL     1     -20.599  13.243 -21.410  1.00  0.00     0.002 C 
ATOM     34  C   UNL     1     -18.170  13.628 -21.969  1.00  0.00     0.002 C 
ATOM     35  C   UNL     1     -19.247  13.728 -20.929  1.00  0.00     0.000 C 
ENDBRANCH  28  30
ENDBRANCH   1  26
TORSDOF 8

ENDMDL
MODEL 5
REMARK VINA RESULT:    -8.918      3.010      6.227
REMARK INTER + INTRA:         -14.618
REMARK INTER:                 -11.305
REMARK INTRA:                  -3.313
REMARK CONF_INDEPENDENT:        2.386
REMARK UNBOUND:                 3.313
REMARK SMILES CC(C)(C)c1ccc(N(C(=O)c2c[nH]cn2)C(C(=O)NC2CCCCC2)c2cccnc2)cc1
REMARK SMILES IDX 17 1 9 2 10 3 11 4 12 5 16 6 13 7 15 8 14 9 8 10 33 11 7 12
REMARK SMILES IDX 34 13 6 14 5 15 2 16 4 17 3 18 1 19 27 20 32 21 28 22 31 23
REMARK SMILES IDX 29 24 30 25 18 26 19 27 20 28 21 30 26 31 22 32 25 33 23 34
REMARK SMILES IDX 24 35
REMARK H PARENT 20 29
REMARK Flexibility Score: inf
ROOT
ATOM      1  C   UNL     1     -19.771  20.421 -27.214  1.00  0.00     0.212 C 
ENDROOT
BRANCH   1   2
ATOM      2  N   UNL     1     -19.927  19.843 -28.516  1.00  0.00    -0.290 N 
BRANCH   2   3
ATOM      3  C   UNL     1     -20.057  20.720 -29.688  1.00  0.00     0.279 C 
ATOM      4  O   UNL     1     -19.827  21.868 -29.531  1.00  0.00    -0.267 OA
BRANCH   3   5
ATOM      5  C   UNL     1     -20.481  20.177 -31.072  1.00  0.00     0.146 A 
ATOM      6  N   UNL     1     -21.258  19.129 -31.246  1.00  0.00    -0.232 NA
ATOM      7  C   UNL     1     -20.120  20.632 -32.325  1.00  0.00     0.118 A 
ATOM      8  C   UNL     1     -21.398  18.929 -32.572  1.00  0.00     0.197 A 
ATOM      9  N   UNL     1     -20.696  19.849 -33.229  1.00  0.00    -0.350 N 
ENDBRANCH   3   5
ENDBRANCH   2   3
BRANCH   2  10
ATOM     10  C   UNL     1     -20.109  18.374 -28.574  1.00  0.00     0.045 A 
ATOM     11  C   UNL     1     -19.033  17.527 -28.760  1.00  0.00     0.027 A 
ATOM     12  C   UNL     1     -21.407  17.869 -28.456  1.00  0.00     0.027 A 
ATOM     13  C   UNL     1     -19.242  16.137 -28.812  1.00  0.00     0.006 A 
ATOM     14  C   UNL     1     -21.616  16.485 -28.507  1.00  0.00     0.006 A 
ATOM     15  C   UNL     1     -20.531  15.619 -28.690  1.00  0.00    -0.042 A 
BRANCH  15  16
ATOM     16  C   UNL     1     -20.770  14.065 -28.742  1.00  0.00    -0.013 C 
ATOM     17  C   UNL     1     -21.479  13.608 -27.470  1.00  0.00     0.016 C 
ATOM     18  C   UNL     1     -21.621  13.611 -29.947  1.00  0.00     0.016 C 
ATOM     19  C   UNL     1     -19.399  13.388 -28.845  1.00  0.00     0.016 C 
ENDBRANCH  15  16
ENDBRANCH   2  10
ENDBRANCH   1   2
BRANCH   1  20
ATOM     20  C   UNL     1     -18.569  21.282 -26.959  1.00  0.00     0.003 A 
ATOM     21  C   UNL     1     -18.606  22.284 -26.028  1.00  0.00     0.117 A 
ATOM     22  C   UNL     1     -17.461  21.062 -27.697  1.00  0.00     0.009 A 
ATOM     23  N   UNL     1     -17.536  23.090 -25.851  1.00  0.00    -0.264 NA
ATOM     24  C   UNL     1     -16.367  21.868 -27.506  1.00  0.00     0.020 A 
ATOM     25  C   UNL     1     -16.420  22.883 -26.570  1.00  0.00     0.111 A 
ENDBRANCH   1  20
BRANCH   1  26
ATOM     26  C   UNL     1     -19.564  19.265 -26.193  1.00  0.00     0.248 C 
ATOM     27  O   UNL     1     -18.464  18.944 -25.822  1.00  0.00    -0.272 OA
ATOM     28  N   UNL     1     -20.775  18.617 -25.662  1.00  0.00    -0.351 N 
ATOM     29  H   UNL     1     -21.540  18.892 -25.942  1.00  0.00     0.163 HD
BRANCH  28  30
ATOM     30  C   UNL     1     -20.742  17.545 -24.698  1.00  0.00     0.082 C 
ATOM     31  C   UNL     1     -19.715  16.507 -25.183  1.00  0.00     0.025 C 
ATOM     32  C   UNL     1     -22.140  16.935 -24.676  1.00  0.00     0.025 C 
ATOM     33  C   UNL     1     -19.838  15.172 -24.429  1.00  0.00     0.002 C 
ATOM     34  C   UNL     1     -22.213  15.707 -23.770  1.00  0.00     0.002 C 
ATOM     35  C   UNL     1     -21.253  14.662 -24.260  1.00  0.00     0.000 C 
ENDBRANCH  28  30
ENDBRANCH   1  26
TORSDOF 8

ENDMDL
MODEL 6
REMARK VINA RESULT:    -8.545      1.903      4.979
REMARK INTER + INTRA:         -14.089
REMARK INTER:                 -10.932
REMARK INTRA:                  -3.157
REMARK CONF_INDEPENDENT:        2.386
REMARK UNBOUND:                 3.157
REMARK SMILES CC(C)(C)c1ccc(N(C(=O)c2c[nH]cn2)C(C(=O)NC2CCCCC2)c2cccnc2)cc1
REMARK SMILES IDX 17 1 9 2 10 3 11 4 12 5 16 6 13 7 15 8 14 9 8 10 33 11 7 12
REMARK SMILES IDX 34 13 6 14 5 15 2 16 4 17 3 18 1 19 27 20 32 21 28 22 31 23
REMARK SMILES IDX 29 24 30 25 18 26 19 27 20 28 21 30 26 31 22 32 25 33 23 34
REMARK SMILES IDX 24 35
REMARK H PARENT 20 29
REMARK Flexibility Score: inf
ROOT
ATOM      1  C   UNL     1     -21.001  14.994 -24.397  1.00  0.00     0.212 C 
ENDROOT
BRANCH   1   2
ATOM      2  N   UNL     1     -20.767  16.333 -24.852  1.00  0.00    -0.290 N 
BRANCH   2   3
ATOM      3  C   UNL     1     -20.388  17.371 -23.884  1.00  0.00     0.279 C 
ATOM      4  O   UNL     1     -20.543  17.125 -22.739  1.00  0.00    -0.267 OA
BRANCH   3   5
ATOM      5  C   UNL     1     -19.814  18.735 -24.332  1.00  0.00     0.146 A 
ATOM      6  N   UNL     1     -19.005  18.893 -25.358  1.00  0.00    -0.232 NA
ATOM      7  C   UNL     1     -19.994  19.978 -23.757  1.00  0.00     0.118 A 
ATOM      8  C   UNL     1     -18.687  20.200 -25.442  1.00  0.00     0.197 A 
ATOM      9  N   UNL     1     -19.291  20.861 -24.458  1.00  0.00    -0.350 N 
ENDBRANCH   3   5
ENDBRANCH   2   3
BRANCH   2  10
ATOM     10  C   UNL     1     -21.085  16.618 -26.271  1.00  0.00     0.045 A 
ATOM     11  C   UNL     1     -20.115  16.534 -27.251  1.00  0.00     0.027 A 
ATOM     12  C   UNL     1     -22.394  16.996 -26.585  1.00  0.00     0.027 A 
ATOM     13  C   UNL     1     -20.452  16.814 -28.588  1.00  0.00     0.006 A 
ATOM     14  C   UNL     1     -22.729  17.274 -27.916  1.00  0.00     0.006 A 
ATOM     15  C   UNL     1     -21.754  17.187 -28.918  1.00  0.00    -0.042 A 
BRANCH  15  16
ATOM     16  C   UNL     1     -22.138  17.496 -30.412  1.00  0.00    -0.013 C 
ATOM     17  C   UNL     1     -23.576  18.000 -30.484  1.00  0.00     0.016 C 
ATOM     18  C   UNL     1     -21.231  18.554 -31.076  1.00  0.00     0.016 C 
ATOM     19  C   UNL     1     -22.003  16.191 -31.204  1.00  0.00     0.016 C 
ENDBRANCH  15  16
ENDBRANCH   2  10
ENDBRANCH   1   2
BRANCH   1  20
ATOM     20  C   UNL     1     -20.062  14.416 -23.380  1.00  0.00     0.003 A 
ATOM     21  C   UNL     1     -20.507  13.535 -22.432  1.00  0.00     0.117 A 
ATOM     22  C   UNL     1     -18.773  14.816 -23.404  1.00  0.00     0.009 A 
ATOM     23  N   UNL     1     -19.663  13.069 -21.484  1.00  0.00    -0.264 NA
ATOM     24  C   UNL     1     -17.910  14.329 -22.454  1.00  0.00     0.020 A 
ATOM     25  C   UNL     1     -18.374  13.448 -21.496  1.00  0.00     0.111 A 
ENDBRANCH   1  20
BRANCH   1  26
ATOM     26  C   UNL     1     -20.802  14.031 -25.604  1.00  0.00     0.248 C 
ATOM     27  O   UNL     1     -19.804  13.366 -25.720  1.00  0.00    -0.272 OA
ATOM     28  N   UNL     1     -21.910  13.932 -26.569  1.00  0.00    -0.351 N 
ATOM     29  H   UNL     1     -22.610  14.412 -26.436  1.00  0.00     0.163 HD
BRANCH  28  30
ATOM     30  C   UNL     1     -21.878  13.071 -27.725  1.00  0.00     0.082 C 
ATOM     31  C   UNL     1     -20.613  13.413 -28.533  1.00  0.00     0.025 C 
ATOM     32  C   UNL     1     -23.128  13.389 -28.541  1.00  0.00     0.025 C 
ATOM     33  C   UNL     1     -20.646  12.811 -29.947  1.00  0.00     0.002 C 
ATOM     34  C   UNL     1     -23.160  12.619 -29.860  1.00  0.00     0.002 C 
ATOM     35  C   UNL     1     -21.958  12.981 -30.684  1.00  0.00     0.000 C 
ENDBRANCH  28  30
ENDBRANCH   1  26
TORSDOF 8

ENDMDL
MODEL 7
REMARK VINA RESULT:    -8.375      2.049      5.134
REMARK INTER + INTRA:         -13.994
REMARK INTER:                 -10.762
REMARK INTRA:                  -3.232
REMARK CONF_INDEPENDENT:        2.386
REMARK UNBOUND:                 3.232
REMARK SMILES CC(C)(C)c1ccc(N(C(=O)c2c[nH]cn2)C(C(=O)NC2CCCCC2)c2cccnc2)cc1
REMARK SMILES IDX 17 1 9 2 10 3 11 4 12 5 16 6 13 7 15 8 14 9 8 10 33 11 7 12
REMARK SMILES IDX 34 13 6 14 5 15 2 16 4 17 3 18 1 19 27 20 32 21 28 22 31 23
REMARK SMILES IDX 29 24 30 25 18 26 19 27 20 28 21 30 26 31 22 32 25 33 23 34
REMARK SMILES IDX 24 35
REMARK H PARENT 20 29
REMARK Flexibility Score: inf
ROOT
ATOM      1  C   UNL     1     -20.948  15.221 -24.339  1.00  0.00     0.212 C 
ENDROOT
BRANCH   1   2
ATOM      2  N   UNL     1     -20.660  16.520 -24.869  1.00  0.00    -0.290 N 
BRANCH   2   3
ATOM      3  C   UNL     1     -20.132  17.564 -23.981  1.00  0.00     0.279 C 
ATOM      4  O   UNL     1     -19.250  18.232 -24.397  1.00  0.00    -0.267 OA
BRANCH   3   5
ATOM      5  C   UNL     1     -20.694  17.788 -22.558  1.00  0.00     0.146 A 
ATOM      6  N   UNL     1     -21.867  17.351 -22.152  1.00  0.00    -0.232 NA
ATOM      7  C   UNL     1     -20.128  18.481 -21.505  1.00  0.00     0.118 A 
ATOM      8  C   UNL     1     -22.039  17.744 -20.874  1.00  0.00     0.197 A 
ATOM      9  N   UNL     1     -20.974  18.440 -20.483  1.00  0.00    -0.350 N 
ENDBRANCH   3   5
ENDBRANCH   2   3
BRANCH   2  10
ATOM     10  C   UNL     1     -21.072  16.773 -26.270  1.00  0.00     0.045 A 
ATOM     11  C   UNL     1     -22.393  17.018 -26.592  1.00  0.00     0.027 A 
ATOM     12  C   UNL     1     -20.086  16.734 -27.260  1.00  0.00     0.027 A 
ATOM     13  C   UNL     1     -22.749  17.252 -27.932  1.00  0.00     0.006 A 
ATOM     14  C   UNL     1     -20.441  16.967 -28.595  1.00  0.00     0.006 A 
ATOM     15  C   UNL     1     -21.777  17.222 -28.931  1.00  0.00    -0.042 A 
BRANCH  15  16
ATOM     16  C   UNL     1     -22.169  17.488 -30.431  1.00  0.00    -0.013 C 
ATOM     17  C   UNL     1     -22.003  16.207 -31.244  1.00  0.00     0.016 C 
ATOM     18  C   UNL     1     -23.622  17.977 -30.611  1.00  0.00     0.016 C 
ATOM     19  C   UNL     1     -21.232  18.573 -30.970  1.00  0.00     0.016 C 
ENDBRANCH  15  16
ENDBRANCH   2  10
ENDBRANCH   1   2
BRANCH   1  20
ATOM     20  C   UNL     1     -20.058  14.681 -23.259  1.00  0.00     0.003 A 
ATOM     21  C   UNL     1     -18.696  14.744 -23.372  1.00  0.00     0.117 A 
ATOM     22  C   UNL     1     -20.638  14.100 -22.187  1.00  0.00     0.009 A 
ATOM     23  N   UNL     1     -17.906  14.199 -22.419  1.00  0.00    -0.264 NA
ATOM     24  C   UNL     1     -19.839  13.564 -21.210  1.00  0.00     0.020 A 
ATOM     25  C   UNL     1     -18.465  13.625 -21.341  1.00  0.00     0.111 A 
ENDBRANCH   1  20
BRANCH   1  26
ATOM     26  C   UNL     1     -20.744  14.177 -25.476  1.00  0.00     0.248 C 
ATOM     27  O   UNL     1     -19.787  13.446 -25.494  1.00  0.00    -0.272 OA
ATOM     28  N   UNL     1     -21.800  14.090 -26.499  1.00  0.00    -0.351 N 
ATOM     29  H   UNL     1     -22.474  14.620 -26.436  1.00  0.00     0.163 HD
BRANCH  28  30
ATOM     30  C   UNL     1     -21.758  13.161 -27.602  1.00  0.00     0.082 C 
ATOM     31  C   UNL     1     -20.583  13.562 -28.512  1.00  0.00     0.025 C 
ATOM     32  C   UNL     1     -23.080  13.313 -28.350  1.00  0.00     0.025 C 
ATOM     33  C   UNL     1     -20.646  12.868 -29.882  1.00  0.00     0.002 C 
ATOM     34  C   UNL     1     -23.120  12.459 -29.615  1.00  0.00     0.002 C 
ATOM     35  C   UNL     1     -22.011  12.872 -30.538  1.00  0.00     0.000 C 
ENDBRANCH  28  30
ENDBRANCH   1  26
TORSDOF 8

ENDMDL
MODEL 8
REMARK VINA RESULT:    -8.246      3.845      8.191
REMARK INTER + INTRA:         -13.933
REMARK INTER:                 -10.632
REMARK INTRA:                  -3.301
REMARK CONF_INDEPENDENT:        2.386
REMARK UNBOUND:                 3.301
REMARK SMILES CC(C)(C)c1ccc(N(C(=O)c2c[nH]cn2)C(C(=O)NC2CCCCC2)c2cccnc2)cc1
REMARK SMILES IDX 17 1 9 2 10 3 11 4 12 5 16 6 13 7 15 8 14 9 8 10 33 11 7 12
REMARK SMILES IDX 34 13 6 14 5 15 2 16 4 17 3 18 1 19 27 20 32 21 28 22 31 23
REMARK SMILES IDX 29 24 30 25 18 26 19 27 20 28 21 30 26 31 22 32 25 33 23 34
REMARK SMILES IDX 24 35
REMARK H PARENT 20 29
REMARK Flexibility Score: inf
ROOT
ATOM      1  C   UNL     1     -18.358  20.574 -27.566  1.00  0.00     0.212 C 
ENDROOT
BRANCH   1   2
ATOM      2  N   UNL     1     -19.486  19.859 -27.045  1.00  0.00    -0.290 N 
BRANCH   2   3
ATOM      3  C   UNL     1     -20.427  20.544 -26.150  1.00  0.00     0.279 C 
ATOM      4  O   UNL     1     -21.336  21.108 -26.652  1.00  0.00    -0.267 OA
BRANCH   3   5
ATOM      5  C   UNL     1     -20.247  20.538 -24.615  1.00  0.00     0.146 A 
ATOM      6  N   UNL     1     -19.724  19.538 -23.938  1.00  0.00    -0.232 NA
ATOM      7  C   UNL     1     -20.610  21.507 -23.699  1.00  0.00     0.118 A 
ATOM      8  C   UNL     1     -19.743  19.864 -22.630  1.00  0.00     0.197 A 
ATOM      9  N   UNL     1     -20.290  21.069 -22.487  1.00  0.00    -0.350 N 
ENDBRANCH   3   5
ENDBRANCH   2   3
BRANCH   2  10
ATOM     10  C   UNL     1     -19.537  18.404 -27.323  1.00  0.00     0.045 A 
ATOM     11  C   UNL     1     -20.071  17.520 -26.406  1.00  0.00     0.027 A 
ATOM     12  C   UNL     1     -19.007  17.950 -28.535  1.00  0.00     0.027 A 
ATOM     13  C   UNL     1     -20.101  16.145 -26.702  1.00  0.00     0.006 A 
ATOM     14  C   UNL     1     -19.038  16.581 -28.829  1.00  0.00     0.006 A 
ATOM     15  C   UNL     1     -19.582  15.677 -27.908  1.00  0.00    -0.042 A 
BRANCH  15  16
ATOM     16  C   UNL     1     -19.619  14.141 -28.246  1.00  0.00    -0.013 C 
ATOM     17  C   UNL     1     -18.274  13.706 -28.822  1.00  0.00     0.016 C 
ATOM     18  C   UNL     1     -19.922  13.248 -27.025  1.00  0.00     0.016 C 
ATOM     19  C   UNL     1     -20.724  13.922 -29.284  1.00  0.00     0.016 C 
ENDBRANCH  15  16
ENDBRANCH   2  10
ENDBRANCH   1   2
BRANCH   1  20
ATOM     20  C   UNL     1     -17.666  21.558 -26.670  1.00  0.00     0.003 A 
ATOM     21  C   UNL     1     -18.302  22.694 -26.248  1.00  0.00     0.117 A 
ATOM     22  C   UNL     1     -16.387  21.309 -26.319  1.00  0.00     0.009 A 
ATOM     23  N   UNL     1     -17.645  23.602 -25.491  1.00  0.00    -0.264 NA
ATOM     24  C   UNL     1     -15.725  22.220 -25.535  1.00  0.00     0.020 A 
ATOM     25  C   UNL     1     -16.375  23.368 -25.124  1.00  0.00     0.111 A 
ENDBRANCH   1  20
BRANCH   1  26
ATOM     26  C   UNL     1     -18.856  21.487 -28.724  1.00  0.00     0.248 C 
ATOM     27  O   UNL     1     -18.112  22.245 -29.292  1.00  0.00    -0.272 OA
ATOM     28  N   UNL     1     -20.266  21.344 -29.128  1.00  0.00    -0.351 N 
ATOM     29  H   UNL     1     -20.755  20.777 -28.706  1.00  0.00     0.163 HD
BRANCH  28  30
ATOM     30  C   UNL     1     -20.864  22.109 -30.194  1.00  0.00     0.082 C 
ATOM     31  C   UNL     1     -22.384  21.871 -30.150  1.00  0.00     0.025 C 
ATOM     32  C   UNL     1     -20.283  21.568 -31.498  1.00  0.00     0.025 C 
ATOM     33  C   UNL     1     -23.085  22.350 -31.431  1.00  0.00     0.002 C 
ATOM     34  C   UNL     1     -20.922  22.221 -32.722  1.00  0.00     0.002 C 
ATOM     35  C   UNL     1     -22.399  21.954 -32.722  1.00  0.00     0.000 C 
ENDBRANCH  28  30
ENDBRANCH   1  26
TORSDOF 8

ENDMDL
MODEL 9
REMARK VINA RESULT:    -7.955      1.466      7.908
REMARK INTER + INTRA:         -14.129
REMARK INTER:                 -10.341
REMARK INTRA:                  -3.787
REMARK CONF_INDEPENDENT:        2.386
REMARK UNBOUND:                 3.787
REMARK SMILES CC(C)(C)c1ccc(N(C(=O)c2c[nH]cn2)C(C(=O)NC2CCCCC2)c2cccnc2)cc1
REMARK SMILES IDX 17 1 9 2 10 3 11 4 12 5 16 6 13 7 15 8 14 9 8 10 33 11 7 12
REMARK SMILES IDX 34 13 6 14 5 15 2 16 4 17 3 18 1 19 27 20 32 21 28 22 31 23
REMARK SMILES IDX 29 24 30 25 18 26 19 27 20 28 21 30 26 31 22 32 25 33 23 34
REMARK SMILES IDX 24 35
REMARK H PARENT 20 29
REMARK Flexibility Score: inf
ROOT
ATOM      1  C   UNL     1     -19.504  16.370 -27.741  1.00  0.00     0.212 C 
ENDROOT
BRANCH   1   2
ATOM      2  N   UNL     1     -19.700  15.030 -27.273  1.00  0.00    -0.290 N 
BRANCH   2   3
ATOM      3  C   UNL     1     -19.704  13.920 -28.235  1.00  0.00     0.279 C 
ATOM      4  O   UNL     1     -18.656  13.550 -28.637  1.00  0.00    -0.267 OA
BRANCH   3   5
ATOM      5  C   UNL     1     -21.016  13.257 -28.713  1.00  0.00     0.146 A 
ATOM      6  N   UNL     1     -22.152  13.309 -28.051  1.00  0.00    -0.232 NA
ATOM      7  C   UNL     1     -21.236  12.493 -29.844  1.00  0.00     0.118 A 
ATOM      8  C   UNL     1     -23.072  12.609 -28.744  1.00  0.00     0.197 A 
ATOM      9  N   UNL     1     -22.506  12.107 -29.839  1.00  0.00    -0.350 N 
ENDBRANCH   3   5
ENDBRANCH   2   3
BRANCH   2  10
ATOM     10  C   UNL     1     -20.052  14.870 -25.843  1.00  0.00     0.045 A 
ATOM     11  C   UNL     1     -21.328  14.508 -25.457  1.00  0.00     0.027 A 
ATOM     12  C   UNL     1     -19.057  15.118 -24.892  1.00  0.00     0.027 A 
ATOM     13  C   UNL     1     -21.628  14.368 -24.090  1.00  0.00     0.006 A 
ATOM     14  C   UNL     1     -19.356  14.978 -23.531  1.00  0.00     0.006 A 
ATOM     15  C   UNL     1     -20.645  14.606 -23.130  1.00  0.00    -0.042 A 
BRANCH  15  16
ATOM     16  C   UNL     1     -20.974  14.445 -21.600  1.00  0.00    -0.013 C 
ATOM     17  C   UNL     1     -21.161  15.820 -20.964  1.00  0.00     0.016 C 
ATOM     18  C   UNL     1     -22.248  13.619 -21.326  1.00  0.00     0.016 C 
ATOM     19  C   UNL     1     -19.790  13.726 -20.945  1.00  0.00     0.016 C 
ENDBRANCH  15  16
ENDBRANCH   2  10
ENDBRANCH   1   2
BRANCH   1  20
ATOM     20  C   UNL     1     -19.782  17.500 -26.795  1.00  0.00     0.003 A 
ATOM     21  C   UNL     1     -18.762  18.252 -26.278  1.00  0.00     0.117 A 
ATOM     22  C   UNL     1     -21.063  17.733 -26.441  1.00  0.00     0.009 A 
ATOM     23  N   UNL     1     -19.022  19.228 -25.379  1.00  0.00    -0.264 NA
ATOM     24  C   UNL     1     -21.331  18.736 -25.543  1.00  0.00     0.020 A 
ATOM     25  C   UNL     1     -20.291  19.481 -25.020  1.00  0.00     0.111 A 
ENDBRANCH   1  20
BRANCH   1  26
ATOM     26  C   UNL     1     -20.533  16.641 -28.878  1.00  0.00     0.248 C 
ATOM     27  O   UNL     1     -20.253  17.327 -29.828  1.00  0.00    -0.272 OA
ATOM     28  N   UNL     1     -21.844  15.980 -28.764  1.00  0.00    -0.351 N 
ATOM     29  H   UNL     1     -21.992  15.485 -28.078  1.00  0.00     0.163 HD
BRANCH  28  30
ATOM     30  C   UNL     1     -22.890  16.122 -29.747  1.00  0.00     0.082 C 
ATOM     31  C   UNL     1     -22.378  15.527 -31.071  1.00  0.00     0.025 C 
ATOM     32  C   UNL     1     -23.140  17.620 -29.903  1.00  0.00     0.025 C 
ATOM     33  C   UNL     1     -23.259  15.926 -32.266  1.00  0.00     0.002 C 
ATOM     34  C   UNL     1     -24.155  17.917 -31.004  1.00  0.00     0.002 C 
ATOM     35  C   UNL     1     -23.648  17.388 -32.314  1.00  0.00     0.000 C 
ENDBRANCH  28  30
ENDBRANCH   1  26
TORSDOF 8

ENDMDL
