
     RDKit          3D

 67 70  0  0  0  0  0  0  0  0999 V2000
  -20.6950   15.6830  -21.1770 C   0  0  0  0  0  0  0  0  0  0  0  0
  -20.2710   14.3990  -21.8980 C   0  0  0  0  0  0  0  0  0  0  0  0
  -18.8750   13.9960  -21.3780 C   0  0  0  0  0  0  0  0  0  0  0  0
  -21.2410   13.2700  -21.5590 C   0  0  0  0  0  0  0  0  0  0  0  0
  -20.3080   14.6870  -23.4440 C   0  0  0  0  0  0  0  0  0  0  0  0
  -20.0750   13.6470  -24.3520 C   0  0  0  0  0  0  0  0  0  0  0  0
  -20.1110   13.8970  -25.7300 C   0  0  0  0  0  0  0  0  0  0  0  0
  -20.3960   15.1880  -26.1870 C   0  0  0  0  0  0  0  0  0  0  0  0
  -20.4240   15.4160  -27.6510 N   0  0  0  0  0  0  0  0  0  0  0  0
  -20.2160   14.3490  -28.6390 C   0  0  0  0  0  0  0  0  0  0  0  0
  -19.1750   14.3250  -29.1970 O   0  0  0  0  0  0  0  0  0  0  0  0
  -21.3070   13.2980  -28.9480 C   0  0  0  0  0  0  0  0  0  0  0  0
  -22.4800   13.0430  -28.2620 C   0  0  0  0  0  0  0  0  0  0  0  0
  -23.1270   12.0740  -28.8990 N   0  0  0  0  0  0  0  0  0  0  0  0
  -22.3900   11.7260  -29.9510 C   0  0  0  0  0  0  0  0  0  0  0  0
  -21.2760   12.4850  -29.9820 N   0  0  0  0  0  0  0  0  0  0  0  0
  -20.8300   16.7170  -28.0910 C   0  0  0  0  0  0  0  0  0  0  0  0
  -19.5490   17.5660  -28.3390 C   0  0  0  0  0  0  0  0  0  0  0  0
  -18.6310   17.1410  -28.9930 O   0  0  0  0  0  0  0  0  0  0  0  0
  -19.5320   18.9290  -27.7820 N   0  0  0  0  0  0  0  0  0  0  0  0
  -18.4230   19.8370  -27.9450 C   0  0  0  0  0  0  0  0  0  0  0  0
  -19.0130   21.1700  -28.3960 C   0  0  0  0  0  0  0  0  0  0  0  0
  -17.9490   22.2600  -28.4990 C   0  0  0  0  0  0  0  0  0  0  0  0
  -17.3040   22.4630  -27.1590 C   0  0  0  0  0  0  0  0  0  0  0  0
  -16.7670   21.1870  -26.5460 C   0  0  0  0  0  0  0  0  0  0  0  0
  -17.7370   19.9940  -26.5770 C   0  0  0  0  0  0  0  0  0  0  0  0
  -21.5400   16.8320  -29.4070 C   0  0  0  0  0  0  0  0  0  0  0  0
  -22.6520   16.0920  -29.5970 C   0  0  0  0  0  0  0  0  0  0  0  0
  -23.3370   16.2160  -30.7790 C   0  0  0  0  0  0  0  0  0  0  0  0
  -22.8820   17.0930  -31.7450 C   0  0  0  0  0  0  0  0  0  0  0  0
  -21.7770   17.8280  -31.5330 N   0  0  0  0  0  0  0  0  0  0  0  0
  -21.0930   17.6900  -30.3750 C   0  0  0  0  0  0  0  0  0  0  0  0
  -20.6220   16.2220  -25.2980 C   0  0  0  0  0  0  0  0  0  0  0  0
  -20.5850   15.9700  -23.9150 C   0  0  0  0  0  0  0  0  0  0  0  0
  -20.6434   15.5269  -20.0894 H   0  0  0  0  0  0  0  0  0  0  0  0
  -20.0201   16.5035  -21.4620 H   0  0  0  0  0  0  0  0  0  0  0  0
  -21.7258   15.9403  -21.4620 H   0  0  0  0  0  0  0  0  0  0  0  0
  -18.8791   13.9972  -20.2780 H   0  0  0  0  0  0  0  0  0  0  0  0
  -18.6246   12.9889  -21.7427 H   0  0  0  0  0  0  0  0  0  0  0  0
  -18.1263   14.7147  -21.7427 H   0  0  0  0  0  0  0  0  0  0  0  0
  -21.3239   13.1735  -20.4664 H   0  0  0  0  0  0  0  0  0  0  0  0
  -22.2303   13.4968  -21.9832 H   0  0  0  0  0  0  0  0  0  0  0  0
  -20.8678   12.3262  -21.9832 H   0  0  0  0  0  0  0  0  0  0  0  0
  -19.8635   12.6326  -23.9830 H   0  0  0  0  0  0  0  0  0  0  0  0
  -19.9168   13.0852  -26.4464 H   0  0  0  0  0  0  0  0  0  0  0  0
  -22.8182   13.5536  -27.3482 H   0  0  0  0  0  0  0  0  0  0  0  0
  -24.0334   11.6664  -28.6284 H   0  0  0  0  0  0  0  0  0  0  0  0
  -22.6486   10.9435  -30.6795 H   0  0  0  0  0  0  0  0  0  0  0  0
  -21.5211   17.0297  -27.2944 H   0  0  0  0  0  0  0  0  0  0  0  0
  -20.2170   19.1960  -27.3370 H   0  0  0  0  0  0  0  0  0  0  0  0
  -17.6864   19.4776  -28.6786 H   0  0  0  0  0  0  0  0  0  0  0  0
  -19.4808   21.0358  -29.3825 H   0  0  0  0  0  0  0  0  0  0  0  0
  -19.7521   21.4862  -27.6452 H   0  0  0  0  0  0  0  0  0  0  0  0
  -17.1853   21.9580  -29.2308 H   0  0  0  0  0  0  0  0  0  0  0  0
  -18.4194   23.1998  -28.8239 H   0  0  0  0  0  0  0  0  0  0  0  0
  -16.4695   23.1698  -27.2781 H   0  0  0  0  0  0  0  0  0  0  0  0
  -18.0815   22.8446  -26.4809 H   0  0  0  0  0  0  0  0  0  0  0  0
  -15.8570   20.9015  -27.0941 H   0  0  0  0  0  0  0  0  0  0  0  0
  -16.5851   21.4084  -25.4840 H   0  0  0  0  0  0  0  0  0  0  0  0
  -17.1750   19.0748  -26.3552 H   0  0  0  0  0  0  0  0  0  0  0  0
  -18.5199   20.1762  -25.8260 H   0  0  0  0  0  0  0  0  0  0  0  0
  -23.0035   15.4006  -28.8170 H   0  0  0  0  0  0  0  0  0  0  0  0
  -24.2443   15.6201  -30.9570 H   0  0  0  0  0  0  0  0  0  0  0  0
  -23.4284   17.1903  -32.6947 H   0  0  0  0  0  0  0  0  0  0  0  0
  -20.1730   18.2700  -30.2101 H   0  0  0  0  0  0  0  0  0  0  0  0
  -20.8296   17.2361  -25.6702 H   0  0  0  0  0  0  0  0  0  0  0  0
  -20.7750   16.7868  -23.2031 H   0  0  0  0  0  0  0  0  0  0  0  0
  1  2  1  0
  2  3  1  0
  2  4  1  0
  2  5  1  0
  5  6  2  0
  6  7  1  0
  7  8  2  0
  8  9  1  0
  9 10  1  0
 10 11  2  0
 10 12  1  0
 12 13  2  0
 13 14  1  0
 14 15  1  0
 15 16  2  0
  9 17  1  0
 17 18  1  0
 18 19  2  0
 18 20  1  0
 20 21  1  0
 21 22  1  0
 22 23  1  0
 23 24  1  0
 24 25  1  0
 25 26  1  0
 17 27  1  0
 27 28  2  0
 28 29  1  0
 29 30  2  0
 30 31  1  0
 31 32  2  0
  8 33  1  0
 33 34  2  0
 34  5  1  0
 16 12  1  0
 26 21  1  0
 32 27  1  0
  1 35  1  0
  1 36  1  0
  1 37  1  0
  3 38  1  0
  3 39  1  0
  3 40  1  0
  4 41  1  0
  4 42  1  0
  4 43  1  0
  6 44  1  0
  7 45  1  0
 13 46  1  0
 14 47  1  0
 15 48  1  0
 17 49  1  0
 20 50  1  0
 21 51  1  0
 22 52  1  0
 22 53  1  0
 23 54  1  0
 23 55  1  0
 24 56  1  0
 24 57  1  0
 25 58  1  0
 25 59  1  0
 26 60  1  0
 26 61  1  0
 28 62  1  0
 29 63  1  0
 30 64  1  0
 32 65  1  0
 33 66  1  0
 34 67  1  0
M  END
>  <meeko>  (1) 
{"free_energy": -9.332, "intermolecular_energy": -11.718, "internal_energy": -2.433}

$$$$

     RDKit          3D

 67 70  0  0  0  0  0  0  0  0999 V2000
  -16.3780   20.7730  -27.3220 C   0  0  0  0  0  0  0  0  0  0  0  0
  -17.8480   21.1850  -27.1970 C   0  0  0  0  0  0  0  0  0  0  0  0
  -17.9890   22.0880  -25.9530 C   0  0  0  0  0  0  0  0  0  0  0  0
  -18.2630   22.0010  -28.4180 C   0  0  0  0  0  0  0  0  0  0  0  0
  -18.7070   19.8690  -27.1200 C   0  0  0  0  0  0  0  0  0  0  0  0
  -19.0060   19.3050  -25.8740 C   0  0  0  0  0  0  0  0  0  0  0  0
  -19.7740   18.1350  -25.7990 C   0  0  0  0  0  0  0  0  0  0  0  0
  -20.2480   17.5480  -26.9760 C   0  0  0  0  0  0  0  0  0  0  0  0
  -21.0550   16.3110  -26.8590 N   0  0  0  0  0  0  0  0  0  0  0  0
  -22.4010   16.2770  -26.2710 C   0  0  0  0  0  0  0  0  0  0  0  0
  -23.2700   15.8330  -26.9370 O   0  0  0  0  0  0  0  0  0  0  0  0
  -22.6830   16.8020  -24.8450 C   0  0  0  0  0  0  0  0  0  0  0  0
  -23.1170   18.0560  -24.4560 C   0  0  0  0  0  0  0  0  0  0  0  0
  -23.2520   18.0530  -23.1350 N   0  0  0  0  0  0  0  0  0  0  0  0
  -22.9150   16.8410  -22.7020 C   0  0  0  0  0  0  0  0  0  0  0  0
  -22.5730   16.0730  -23.7560 N   0  0  0  0  0  0  0  0  0  0  0  0
  -20.5340   15.1400  -27.4990 C   0  0  0  0  0  0  0  0  0  0  0  0
  -20.0490   14.1580  -26.3930 C   0  0  0  0  0  0  0  0  0  0  0  0
  -19.3870   13.1880  -26.6600 O   0  0  0  0  0  0  0  0  0  0  0  0
  -20.3940   14.4970  -25.0010 N   0  0  0  0  0  0  0  0  0  0  0  0
  -20.0000   13.6930  -23.8710 C   0  0  0  0  0  0  0  0  0  0  0  0
  -18.7200   14.3130  -23.3190 C   0  0  0  0  0  0  0  0  0  0  0  0
  -18.2530   13.6190  -22.0420 C   0  0  0  0  0  0  0  0  0  0  0  0
  -19.3180   13.7310  -20.9900 C   0  0  0  0  0  0  0  0  0  0  0  0
  -20.6760   13.2430  -21.4500 C   0  0  0  0  0  0  0  0  0  0  0  0
  -21.1240   13.7710  -22.8220 C   0  0  0  0  0  0  0  0  0  0  0  0
  -21.4790   14.2810  -28.2860 C   0  0  0  0  0  0  0  0  0  0  0  0
  -21.6270   14.5380  -29.6020 C   0  0  0  0  0  0  0  0  0  0  0  0
  -22.4550   13.7350  -30.3460 C   0  0  0  0  0  0  0  0  0  0  0  0
  -23.1140   12.6850  -29.7380 C   0  0  0  0  0  0  0  0  0  0  0  0
  -22.9470   12.4400  -28.4280 N   0  0  0  0  0  0  0  0  0  0  0  0
  -22.1460   13.2430  -27.6930 C   0  0  0  0  0  0  0  0  0  0  0  0
  -19.9530   18.0940  -28.2110 C   0  0  0  0  0  0  0  0  0  0  0  0
  -19.1820   19.2680  -28.2850 C   0  0  0  0  0  0  0  0  0  0  0  0
  -15.9446   20.6515  -26.3183 H   0  0  0  0  0  0  0  0  0  0  0  0
  -16.3092   19.8210  -27.8687 H   0  0  0  0  0  0  0  0  0  0  0  0
  -15.8245   21.5506  -27.8687 H   0  0  0  0  0  0  0  0  0  0  0  0
  -17.8936   21.4767  -25.0435 H   0  0  0  0  0  0  0  0  0  0  0  0
  -17.1996   22.8539  -25.9645 H   0  0  0  0  0  0  0  0  0  0  0  0
  -18.9744   22.5768  -25.9645 H   0  0  0  0  0  0  0  0  0  0  0  0
  -18.7389   22.9367  -28.0892 H   0  0  0  0  0  0  0  0  0  0  0  0
  -17.3741   22.2344  -29.0224 H   0  0  0  0  0  0  0  0  0  0  0  0
  -18.9752   21.4201  -29.0224 H   0  0  0  0  0  0  0  0  0  0  0  0
  -18.6378   19.7806  -24.9530 H   0  0  0  0  0  0  0  0  0  0  0  0
  -20.0018   17.6825  -24.8226 H   0  0  0  0  0  0  0  0  0  0  0  0
  -23.3156   18.9071  -25.1240 H   0  0  0  0  0  0  0  0  0  0  0  0
  -23.5610   18.8441  -22.5523 H   0  0  0  0  0  0  0  0  0  0  0  0
  -22.9153   16.5169  -21.6508 H   0  0  0  0  0  0  0  0  0  0  0  0
  -19.7891   15.5617  -28.1899 H   0  0  0  0  0  0  0  0  0  0  0  0
  -20.8530   15.2090  -24.8570 H   0  0  0  0  0  0  0  0  0  0  0  0
  -19.8294   12.6402  -24.1402 H   0  0  0  0  0  0  0  0  0  0  0  0
  -17.9286   14.2293  -24.0784 H   0  0  0  0  0  0  0  0  0  0  0  0
  -18.9292   15.3654  -23.0767 H   0  0  0  0  0  0  0  0  0  0  0  0
  -18.0569   12.5574  -22.2530 H   0  0  0  0  0  0  0  0  0  0  0  0
  -17.3313   14.0990  -21.6814 H   0  0  0  0  0  0  0  0  0  0  0  0
  -19.0106   13.1343  -20.1185 H   0  0  0  0  0  0  0  0  0  0  0  0
  -19.4230   14.7990  -20.7486 H   0  0  0  0  0  0  0  0  0  0  0  0
  -20.6451   12.1446  -21.5003 H   0  0  0  0  0  0  0  0  0  0  0  0
  -21.4043   13.6258  -20.7199 H   0  0  0  0  0  0  0  0  0  0  0  0
  -21.9768   13.1704  -23.1714 H   0  0  0  0  0  0  0  0  0  0  0  0
  -21.4012   14.8288  -22.7024 H   0  0  0  0  0  0  0  0  0  0  0  0
  -21.0928   15.3774  -30.0712 H   0  0  0  0  0  0  0  0  0  0  0  0
  -22.5928   13.9268  -31.4203 H   0  0  0  0  0  0  0  0  0  0  0  0
  -23.7817   12.0434  -30.3318 H   0  0  0  0  0  0  0  0  0  0  0  0
  -22.0296   13.0618  -26.6143 H   0  0  0  0  0  0  0  0  0  0  0  0
  -20.3189   17.6134  -29.1303 H   0  0  0  0  0  0  0  0  0  0  0  0
  -18.9532   19.7132  -29.2645 H   0  0  0  0  0  0  0  0  0  0  0  0
  1  2  1  0
  2  3  1  0
  2  4  1  0
  2  5  1  0
  5  6  2  0
  6  7  1  0
  7  8  2  0
  8  9  1  0
  9 10  1  0
 10 11  2  0
 10 12  1  0
 12 13  2  0
 13 14  1  0
 14 15  1  0
 15 16  2  0
  9 17  1  0
 17 18  1  0
 18 19  2  0
 18 20  1  0
 20 21  1  0
 21 22  1  0
 22 23  1  0
 23 24  1  0
 24 25  1  0
 25 26  1  0
 17 27  1  0
 27 28  2  0
 28 29  1  0
 29 30  2  0
 30 31  1  0
 31 32  2  0
  8 33  1  0
 33 34  2  0
 34  5  1  0
 16 12  1  0
 26 21  1  0
 32 27  1  0
  1 35  1  0
  1 36  1  0
  1 37  1  0
  3 38  1  0
  3 39  1  0
  3 40  1  0
  4 41  1  0
  4 42  1  0
  4 43  1  0
  6 44  1  0
  7 45  1  0
 13 46  1  0
 14 47  1  0
 15 48  1  0
 17 49  1  0
 20 50  1  0
 21 51  1  0
 22 52  1  0
 22 53  1  0
 23 54  1  0
 23 55  1  0
 24 56  1  0
 24 57  1  0
 25 58  1  0
 25 59  1  0
 26 60  1  0
 26 61  1  0
 28 62  1  0
 29 63  1  0
 30 64  1  0
 32 65  1  0
 33 66  1  0
 34 67  1  0
M  END
>  <meeko>  (2) 
{"free_energy": -9.321, "intermolecular_energy": -11.708, "internal_energy": -3.316}

$$$$

     RDKit          3D

 67 70  0  0  0  0  0  0  0  0999 V2000
  -25.0000   18.6550  -32.2450 C   0  0  0  0  0  0  0  0  0  0  0  0
  -24.5340   17.1950  -32.2660 C   0  0  0  0  0  0  0  0  0  0  0  0
  -25.7630   16.2960  -32.0170 C   0  0  0  0  0  0  0  0  0  0  0  0
  -23.9730   16.8500  -33.6430 C   0  0  0  0  0  0  0  0  0  0  0  0
  -23.4090   17.0400  -31.1770 C   0  0  0  0  0  0  0  0  0  0  0  0
  -22.2590   16.2950  -31.4660 C   0  0  0  0  0  0  0  0  0  0  0  0
  -21.2530   16.1570  -30.5010 C   0  0  0  0  0  0  0  0  0  0  0  0
  -21.4020   16.7800  -29.2580 C   0  0  0  0  0  0  0  0  0  0  0  0
  -20.3180   16.6110  -28.2620 N   0  0  0  0  0  0  0  0  0  0  0  0
  -19.4980   17.7230  -27.7640 C   0  0  0  0  0  0  0  0  0  0  0  0
  -18.5980   18.0770  -28.4430 O   0  0  0  0  0  0  0  0  0  0  0  0
  -19.7860   18.4080  -26.4080 C   0  0  0  0  0  0  0  0  0  0  0  0
  -20.8790   19.1700  -26.0410 C   0  0  0  0  0  0  0  0  0  0  0  0
  -20.7210   19.5310  -24.7730 N   0  0  0  0  0  0  0  0  0  0  0  0
  -19.5680   19.0170  -24.3510 C   0  0  0  0  0  0  0  0  0  0  0  0
  -19.0000   18.3210  -25.3570 N   0  0  0  0  0  0  0  0  0  0  0  0
  -20.1940   15.3170  -27.6610 C   0  0  0  0  0  0  0  0  0  0  0  0
  -20.5560   15.4470  -26.1520 C   0  0  0  0  0  0  0  0  0  0  0  0
  -21.5540   16.0180  -25.7930 O   0  0  0  0  0  0  0  0  0  0  0  0
  -19.6520   14.7950  -25.1890 N   0  0  0  0  0  0  0  0  0  0  0  0
  -19.8670   14.8160  -23.7630 C   0  0  0  0  0  0  0  0  0  0  0  0
  -20.7820   13.6370  -23.4430 C   0  0  0  0  0  0  0  0  0  0  0  0
  -21.0010   13.4760  -21.9410 C   0  0  0  0  0  0  0  0  0  0  0  0
  -19.6820   13.2440  -21.2610 C   0  0  0  0  0  0  0  0  0  0  0  0
  -18.6420   14.2960  -21.5840 C   0  0  0  0  0  0  0  0  0  0  0  0
  -18.5020   14.6330  -23.0770 C   0  0  0  0  0  0  0  0  0  0  0  0
  -21.1250   14.2320  -28.1120 C   0  0  0  0  0  0  0  0  0  0  0  0
  -20.7630   13.4840  -29.1760 C   0  0  0  0  0  0  0  0  0  0  0  0
  -21.5830   12.4600  -29.5770 C   0  0  0  0  0  0  0  0  0  0  0  0
  -22.7550   12.2120  -28.8870 C   0  0  0  0  0  0  0  0  0  0  0  0
  -23.0940   12.9620  -27.8260 N   0  0  0  0  0  0  0  0  0  0  0  0
  -22.2930   13.9830  -27.4440 C   0  0  0  0  0  0  0  0  0  0  0  0
  -22.5360   17.5130  -28.9630 C   0  0  0  0  0  0  0  0  0  0  0  0
  -23.5460   17.6510  -29.9310 C   0  0  0  0  0  0  0  0  0  0  0  0
  -25.1072   18.9907  -31.2030 H   0  0  0  0  0  0  0  0  0  0  0  0
  -24.2580   19.2841  -32.7585 H   0  0  0  0  0  0  0  0  0  0  0  0
  -25.9693   18.7379  -32.7585 H   0  0  0  0  0  0  0  0  0  0  0  0
  -25.9200   16.1812  -30.9343 H   0  0  0  0  0  0  0  0  0  0  0  0
  -26.6529   16.7579  -32.4696 H   0  0  0  0  0  0  0  0  0  0  0  0
  -25.5923   15.3080  -32.4696 H   0  0  0  0  0  0  0  0  0  0  0  0
  -23.0413   16.2770  -33.5263 H   0  0  0  0  0  0  0  0  0  0  0  0
  -24.7072   16.2471  -34.1975 H   0  0  0  0  0  0  0  0  0  0  0  0
  -23.7662   17.7772  -34.1975 H   0  0  0  0  0  0  0  0  0  0  0  0
  -22.1456   15.8182  -32.4508 H   0  0  0  0  0  0  0  0  0  0  0  0
  -20.3531   15.5633  -30.7193 H   0  0  0  0  0  0  0  0  0  0  0  0
  -21.7306   19.4316  -26.6862 H   0  0  0  0  0  0  0  0  0  0  0  0
  -21.3719   20.1042  -24.2174 H   0  0  0  0  0  0  0  0  0  0  0  0
  -19.1458   19.1402  -23.3427 H   0  0  0  0  0  0  0  0  0  0  0  0
  -19.1675   15.0295  -27.9324 H   0  0  0  0  0  0  0  0  0  0  0  0
  -18.9620   14.3830  -25.4930 H   0  0  0  0  0  0  0  0  0  0  0  0
  -20.3205   15.7566  -23.4171 H   0  0  0  0  0  0  0  0  0  0  0  0
  -21.7554   13.8006  -23.9285 H   0  0  0  0  0  0  0  0  0  0  0  0
  -20.3005   12.7213  -23.8168 H   0  0  0  0  0  0  0  0  0  0  0  0
  -21.4645   14.3889  -21.5388 H   0  0  0  0  0  0  0  0  0  0  0  0
  -21.6621   12.6159  -21.7586 H   0  0  0  0  0  0  0  0  0  0  0  0
  -19.8470   13.2401  -20.1735 H   0  0  0  0  0  0  0  0  0  0  0  0
  -19.2939   12.2824  -21.6279 H   0  0  0  0  0  0  0  0  0  0  0  0
  -18.9124   15.2187  -21.0497 H   0  0  0  0  0  0  0  0  0  0  0  0
  -17.6739   13.8781  -21.2707 H   0  0  0  0  0  0  0  0  0  0  0  0
  -17.9276   15.5657  -23.1771 H   0  0  0  0  0  0  0  0  0  0  0  0
  -17.9889   13.7918  -23.5660 H   0  0  0  0  0  0  0  0  0  0  0  0
  -19.8257   13.6923  -29.7127 H   0  0  0  0  0  0  0  0  0  0  0  0
  -21.3094   11.8394  -30.4431 H   0  0  0  0  0  0  0  0  0  0  0  0
  -23.4153   11.3936  -29.2098 H   0  0  0  0  0  0  0  0  0  0  0  0
  -22.5820   14.6162  -26.5922 H   0  0  0  0  0  0  0  0  0  0  0  0
  -22.6476   17.9858  -27.9761 H   0  0  0  0  0  0  0  0  0  0  0  0
  -24.4459   18.2419  -29.7052 H   0  0  0  0  0  0  0  0  0  0  0  0
  1  2  1  0
  2  3  1  0
  2  4  1  0
  2  5  1  0
  5  6  2  0
  6  7  1  0
  7  8  2  0
  8  9  1  0
  9 10  1  0
 10 11  2  0
 10 12  1  0
 12 13  2  0
 13 14  1  0
 14 15  1  0
 15 16  2  0
  9 17  1  0
 17 18  1  0
 18 19  2  0
 18 20  1  0
 20 21  1  0
 21 22  1  0
 22 23  1  0
 23 24  1  0
 24 25  1  0
 25 26  1  0
 17 27  1  0
 27 28  2  0
 28 29  1  0
 29 30  2  0
 30 31  1  0
 31 32  2  0
  8 33  1  0
 33 34  2  0
 34  5  1  0
 16 12  1  0
 26 21  1  0
 32 27  1  0
  1 35  1  0
  1 36  1  0
  1 37  1  0
  3 38  1  0
  3 39  1  0
  3 40  1  0
  4 41  1  0
  4 42  1  0
  4 43  1  0
  6 44  1  0
  7 45  1  0
 13 46  1  0
 14 47  1  0
 15 48  1  0
 17 49  1  0
 20 50  1  0
 21 51  1  0
 22 52  1  0
 22 53  1  0
 23 54  1  0
 23 55  1  0
 24 56  1  0
 24 57  1  0
 25 58  1  0
 25 59  1  0
 26 60  1  0
 26 61  1  0
 28 62  1  0
 29 63  1  0
 30 64  1  0
 32 65  1  0
 33 66  1  0
 34 67  1  0
M  END
>  <meeko>  (3) 
{"free_energy": -9.28, "intermolecular_energy": -11.666, "internal_energy": -2.643}

$$$$

     RDKit          3D

 67 70  0  0  0  0  0  0  0  0999 V2000
  -17.1610   22.5850  -27.6980 C   0  0  0  0  0  0  0  0  0  0  0  0
  -17.3570   21.8140  -26.3890 C   0  0  0  0  0  0  0  0  0  0  0  0
  -15.9630   21.4770  -25.8180 C   0  0  0  0  0  0  0  0  0  0  0  0
  -18.0790   22.6940  -25.3720 C   0  0  0  0  0  0  0  0  0  0  0  0
  -18.2290   20.5450  -26.7090 C   0  0  0  0  0  0  0  0  0  0  0  0
  -19.4240   20.3260  -26.0130 C   0  0  0  0  0  0  0  0  0  0  0  0
  -20.2060   19.2000  -26.2980 C   0  0  0  0  0  0  0  0  0  0  0  0
  -19.7900   18.3080  -27.2910 C   0  0  0  0  0  0  0  0  0  0  0  0
  -20.6420   17.1260  -27.5640 N   0  0  0  0  0  0  0  0  0  0  0  0
  -21.9890   17.2180  -28.1420 C   0  0  0  0  0  0  0  0  0  0  0  0
  -22.8810   17.4370  -27.4000 O   0  0  0  0  0  0  0  0  0  0  0  0
  -22.2430   17.0320  -29.6560 C   0  0  0  0  0  0  0  0  0  0  0  0
  -21.9590   17.9010  -30.6920 C   0  0  0  0  0  0  0  0  0  0  0  0
  -22.3210   17.3180  -31.8290 N   0  0  0  0  0  0  0  0  0  0  0  0
  -22.8190   16.1220  -31.5240 C   0  0  0  0  0  0  0  0  0  0  0  0
  -22.7630   15.9470  -30.1880 N   0  0  0  0  0  0  0  0  0  0  0  0
  -20.0330   15.8410  -27.3910 C   0  0  0  0  0  0  0  0  0  0  0  0
  -20.0580   15.4930  -25.8740 C   0  0  0  0  0  0  0  0  0  0  0  0
  -20.3560   16.3160  -25.0460 O   0  0  0  0  0  0  0  0  0  0  0  0
  -19.7520   14.1010  -25.5020 N   0  0  0  0  0  0  0  0  0  0  0  0
  -19.7530   13.6280  -24.1400 C   0  0  0  0  0  0  0  0  0  0  0  0
  -18.6200   14.3580  -23.4240 C   0  0  0  0  0  0  0  0  0  0  0  0
  -18.5820   14.0290  -21.9330 C   0  0  0  0  0  0  0  0  0  0  0  0
  -19.8780   14.4340  -21.2940 C   0  0  0  0  0  0  0  0  0  0  0  0
  -21.0980   13.8570  -21.9820 C   0  0  0  0  0  0  0  0  0  0  0  0
  -21.1080   14.0000  -23.5120 C   0  0  0  0  0  0  0  0  0  0  0  0
  -20.7110   14.6470  -27.9950 C   0  0  0  0  0  0  0  0  0  0  0  0
  -21.9070   14.2740  -27.4940 C   0  0  0  0  0  0  0  0  0  0  0  0
  -22.5610   13.2100  -28.0620 C   0  0  0  0  0  0  0  0  0  0  0  0
  -21.9880   12.5470  -29.1310 C   0  0  0  0  0  0  0  0  0  0  0  0
  -20.8010   12.9390  -29.6210 N   0  0  0  0  0  0  0  0  0  0  0  0
  -20.1500   13.9760  -29.0480 C   0  0  0  0  0  0  0  0  0  0  0  0
  -18.6090   18.5120  -27.9800 C   0  0  0  0  0  0  0  0  0  0  0  0
  -17.8240   19.6430  -27.6930 C   0  0  0  0  0  0  0  0  0  0  0  0
  -16.8957   23.6285  -27.4727 H   0  0  0  0  0  0  0  0  0  0  0  0
  -16.3528   22.1188  -28.2806 H   0  0  0  0  0  0  0  0  0  0  0  0
  -18.0937   22.5614  -28.2806 H   0  0  0  0  0  0  0  0  0  0  0  0
  -16.0048   21.4871  -24.7188 H   0  0  0  0  0  0  0  0  0  0  0  0
  -15.6565   20.4789  -26.1641 H   0  0  0  0  0  0  0  0  0  0  0  0
  -15.2344   22.2249  -26.1641 H   0  0  0  0  0  0  0  0  0  0  0  0
  -17.8142   22.3712  -24.3543 H   0  0  0  0  0  0  0  0  0  0  0  0
  -17.7772   23.7422  -25.5144 H   0  0  0  0  0  0  0  0  0  0  0  0
  -19.1659   22.6028  -25.5144 H   0  0  0  0  0  0  0  0  0  0  0  0
  -19.7489   21.0394  -25.2413 H   0  0  0  0  0  0  0  0  0  0  0  0
  -21.1397   19.0188  -25.7453 H   0  0  0  0  0  0  0  0  0  0  0  0
  -21.5114   18.9008  -30.5924 H   0  0  0  0  0  0  0  0  0  0  0  0
  -22.2325   17.7182  -32.7740 H   0  0  0  0  0  0  0  0  0  0  0  0
  -23.2135   15.3924  -32.2466 H   0  0  0  0  0  0  0  0  0  0  0  0
  -19.0584   15.9747  -27.8833 H   0  0  0  0  0  0  0  0  0  0  0  0
  -19.5620   13.5440  -26.1290 H   0  0  0  0  0  0  0  0  0  0  0  0
  -19.6104   12.5395  -24.0699 H   0  0  0  0  0  0  0  0  0  0  0  0
  -17.6630   14.0612  -23.8780 H   0  0  0  0  0  0  0  0  0  0  0  0
  -18.7911   15.4394  -23.5299 H   0  0  0  0  0  0  0  0  0  0  0  0
  -18.4310   12.9475  -21.8007 H   0  0  0  0  0  0  0  0  0  0  0  0
  -17.7545   14.5775  -21.4593 H   0  0  0  0  0  0  0  0  0  0  0  0
  -19.8729   14.0909  -20.2489 H   0  0  0  0  0  0  0  0  0  0  0  0
  -19.9495   15.5288  -21.3737 H   0  0  0  0  0  0  0  0  0  0  0  0
  -21.1523   12.7856  -21.7389 H   0  0  0  0  0  0  0  0  0  0  0  0
  -21.9601   14.4322  -21.6134 H   0  0  0  0  0  0  0  0  0  0  0  0
  -21.8833   13.3377  -23.9245 H   0  0  0  0  0  0  0  0  0  0  0  0
  -21.3128   15.0540  -23.7511 H   0  0  0  0  0  0  0  0  0  0  0  0
  -22.3503   14.8140  -26.6443 H   0  0  0  0  0  0  0  0  0  0  0  0
  -23.5360   12.8863  -27.6688 H   0  0  0  0  0  0  0  0  0  0  0  0
  -22.5090   11.6908  -29.5842 H   0  0  0  0  0  0  0  0  0  0  0  0
  -19.1648   14.2820  -29.4297 H   0  0  0  0  0  0  0  0  0  0  0  0
  -18.2853   17.7941  -28.7480 H   0  0  0  0  0  0  0  0  0  0  0  0
  -16.8888   19.8167  -28.2455 H   0  0  0  0  0  0  0  0  0  0  0  0
  1  2  1  0
  2  3  1  0
  2  4  1  0
  2  5  1  0
  5  6  2  0
  6  7  1  0
  7  8  2  0
  8  9  1  0
  9 10  1  0
 10 11  2  0
 10 12  1  0
 12 13  2  0
 13 14  1  0
 14 15  1  0
 15 16  2  0
  9 17  1  0
 17 18  1  0
 18 19  2  0
 18 20  1  0
 20 21  1  0
 21 22  1  0
 22 23  1  0
 23 24  1  0
 24 25  1  0
 25 26  1  0
 17 27  1  0
 27 28  2  0
 28 29  1  0
 29 30  2  0
 30 31  1  0
 31 32  2  0
  8 33  1  0
 33 34  2  0
 34  5  1  0
 16 12  1  0
 26 21  1  0
 32 27  1  0
  1 35  1  0
  1 36  1  0
  1 37  1  0
  3 38  1  0
  3 39  1  0
  3 40  1  0
  4 41  1  0
  4 42  1  0
  4 43  1  0
  6 44  1  0
  7 45  1  0
 13 46  1  0
 14 47  1  0
 15 48  1  0
 17 49  1  0
 20 50  1  0
 21 51  1  0
 22 52  1  0
 22 53  1  0
 23 54  1  0
 23 55  1  0
 24 56  1  0
 24 57  1  0
 25 58  1  0
 25 59  1  0
 26 60  1  0
 26 61  1  0
 28 62  1  0
 29 63  1  0
 30 64  1  0
 32 65  1  0
 33 66  1  0
 34 67  1  0
M  END
>  <meeko>  (4) 
{"free_energy": -9.17, "intermolecular_energy": -11.556, "internal_energy": -2.665}

$$$$

     RDKit          3D

 67 70  0  0  0  0  0  0  0  0999 V2000
  -16.2740   20.7590  -26.5720 C   0  0  0  0  0  0  0  0  0  0  0  0
  -17.7260   21.1710  -26.8340 C   0  0  0  0  0  0  0  0  0  0  0  0
  -18.1420   22.1820  -25.7440 C   0  0  0  0  0  0  0  0  0  0  0  0
  -17.8300   21.8730  -28.1860 C   0  0  0  0  0  0  0  0  0  0  0  0
  -18.5980   19.8620  -26.8440 C   0  0  0  0  0  0  0  0  0  0  0  0
  -19.3510   19.5180  -25.7150 C   0  0  0  0  0  0  0  0  0  0  0  0
  -20.1330   18.3550  -25.7210 C   0  0  0  0  0  0  0  0  0  0  0  0
  -20.1650   17.5540  -26.8660 C   0  0  0  0  0  0  0  0  0  0  0  0
  -21.0010   16.3320  -26.8360 N   0  0  0  0  0  0  0  0  0  0  0  0
  -22.3790   16.3080  -26.3260 C   0  0  0  0  0  0  0  0  0  0  0  0
  -22.6870   15.3910  -25.6470 O   0  0  0  0  0  0  0  0  0  0  0  0
  -23.3930   17.4250  -26.6600 C   0  0  0  0  0  0  0  0  0  0  0  0
  -24.4210   17.9210  -25.8800 C   0  0  0  0  0  0  0  0  0  0  0  0
  -25.0180   18.8950  -26.5560 N   0  0  0  0  0  0  0  0  0  0  0  0
  -24.3920   19.0120  -27.7250 C   0  0  0  0  0  0  0  0  0  0  0  0
  -23.3900   18.1120  -27.7820 N   0  0  0  0  0  0  0  0  0  0  0  0
  -20.4670   15.1710  -27.4840 C   0  0  0  0  0  0  0  0  0  0  0  0
  -19.9980   14.1740  -26.3840 C   0  0  0  0  0  0  0  0  0  0  0  0
  -19.4020   13.1650  -26.6630 O   0  0  0  0  0  0  0  0  0  0  0  0
  -20.2700   14.5470  -24.9850 N   0  0  0  0  0  0  0  0  0  0  0  0
  -19.8810   13.7330  -23.8600 C   0  0  0  0  0  0  0  0  0  0  0  0
  -18.6160   14.3630  -23.2840 C   0  0  0  0  0  0  0  0  0  0  0  0
  -18.1570   13.6580  -22.0090 C   0  0  0  0  0  0  0  0  0  0  0  0
  -19.2360   13.7420  -20.9700 C   0  0  0  0  0  0  0  0  0  0  0  0
  -20.5820   13.2430  -21.4540 C   0  0  0  0  0  0  0  0  0  0  0  0
  -21.0190   13.7820  -22.8250 C   0  0  0  0  0  0  0  0  0  0  0  0
  -21.3980   14.3210  -28.2970 C   0  0  0  0  0  0  0  0  0  0  0  0
  -21.5400   14.6090  -29.6080 C   0  0  0  0  0  0  0  0  0  0  0  0
  -22.3540   13.8150  -30.3770 C   0  0  0  0  0  0  0  0  0  0  0  0
  -23.0070   12.7430  -29.7990 C   0  0  0  0  0  0  0  0  0  0  0  0
  -22.8450   12.4680  -28.4940 N   0  0  0  0  0  0  0  0  0  0  0  0
  -22.0570   13.2620  -27.7350 C   0  0  0  0  0  0  0  0  0  0  0  0
  -19.4210   17.8830  -27.9840 C   0  0  0  0  0  0  0  0  0  0  0  0
  -18.6360   19.0500  -27.9770 C   0  0  0  0  0  0  0  0  0  0  0  0
  -16.0971   20.7088  -25.4875 H   0  0  0  0  0  0  0  0  0  0  0  0
  -16.0863   19.7721  -27.0202 H   0  0  0  0  0  0  0  0  0  0  0  0
  -15.5960   21.5002  -27.0202 H   0  0  0  0  0  0  0  0  0  0  0  0
  -17.9622   21.7450  -24.7507 H   0  0  0  0  0  0  0  0  0  0  0  0
  -17.5495   23.1025  -25.8523 H   0  0  0  0  0  0  0  0  0  0  0  0
  -19.2107   22.4189  -25.8523 H   0  0  0  0  0  0  0  0  0  0  0  0
  -17.9895   22.9499  -28.0287 H   0  0  0  0  0  0  0  0  0  0  0  0
  -16.8992   21.7190  -28.7517 H   0  0  0  0  0  0  0  0  0  0  0  0
  -18.6761   21.4558  -28.7517 H   0  0  0  0  0  0  0  0  0  0  0  0
  -19.3289   20.1609  -24.8227 H   0  0  0  0  0  0  0  0  0  0  0  0
  -20.7169   18.0748  -24.8318 H   0  0  0  0  0  0  0  0  0  0  0  0
  -24.6962   17.5698  -24.8746 H   0  0  0  0  0  0  0  0  0  0  0  0
  -25.8190   19.4573  -26.2348 H   0  0  0  0  0  0  0  0  0  0  0  0
  -24.6511   19.7289  -28.5181 H   0  0  0  0  0  0  0  0  0  0  0  0
  -19.7120   15.6038  -28.1569 H   0  0  0  0  0  0  0  0  0  0  0  0
  -20.6830   15.2850  -24.8330 H   0  0  0  0  0  0  0  0  0  0  0  0
  -19.6940   12.6858  -24.1400 H   0  0  0  0  0  0  0  0  0  0  0  0
  -17.8139   14.2990  -24.0340 H   0  0  0  0  0  0  0  0  0  0  0  0
  -18.8414   15.4097  -23.0319 H   0  0  0  0  0  0  0  0  0  0  0  0
  -17.9444   12.6019  -22.2312 H   0  0  0  0  0  0  0  0  0  0  0  0
  -17.2467   14.1455  -21.6300 H   0  0  0  0  0  0  0  0  0  0  0  0
  -18.9320   13.1374  -20.1028 H   0  0  0  0  0  0  0  0  0  0  0  0
  -19.3578   14.8052  -20.7157 H   0  0  0  0  0  0  0  0  0  0  0  0
  -20.5367   12.1458  -21.5172 H   0  0  0  0  0  0  0  0  0  0  0  0
  -21.3244   13.6081  -20.7290 H   0  0  0  0  0  0  0  0  0  0  0  0
  -21.8587   13.1742  -23.1931 H   0  0  0  0  0  0  0  0  0  0  0  0
  -21.3121   14.8343  -22.6957 H   0  0  0  0  0  0  0  0  0  0  0  0
  -21.0123   15.4656  -30.0527 H   0  0  0  0  0  0  0  0  0  0  0  0
  -22.4858   14.0309  -31.4475 H   0  0  0  0  0  0  0  0  0  0  0  0
  -23.6648   12.1097  -30.4124 H   0  0  0  0  0  0  0  0  0  0  0  0
  -21.9451   13.0556  -26.6603 H   0  0  0  0  0  0  0  0  0  0  0  0
  -19.4429   17.2361  -28.8734 H   0  0  0  0  0  0  0  0  0  0  0  0
  -18.0506   19.3228  -28.8674 H   0  0  0  0  0  0  0  0  0  0  0  0
  1  2  1  0
  2  3  1  0
  2  4  1  0
  2  5  1  0
  5  6  2  0
  6  7  1  0
  7  8  2  0
  8  9  1  0
  9 10  1  0
 10 11  2  0
 10 12  1  0
 12 13  2  0
 13 14  1  0
 14 15  1  0
 15 16  2  0
  9 17  1  0
 17 18  1  0
 18 19  2  0
 18 20  1  0
 20 21  1  0
 21 22  1  0
 22 23  1  0
 23 24  1  0
 24 25  1  0
 25 26  1  0
 17 27  1  0
 27 28  2  0
 28 29  1  0
 29 30  2  0
 30 31  1  0
 31 32  2  0
  8 33  1  0
 33 34  2  0
 34  5  1  0
 16 12  1  0
 26 21  1  0
 32 27  1  0
  1 35  1  0
  1 36  1  0
  1 37  1  0
  3 38  1  0
  3 39  1  0
  3 40  1  0
  4 41  1  0
  4 42  1  0
  4 43  1  0
  6 44  1  0
  7 45  1  0
 13 46  1  0
 14 47  1  0
 15 48  1  0
 17 49  1  0
 20 50  1  0
 21 51  1  0
 22 52  1  0
 22 53  1  0
 23 54  1  0
 23 55  1  0
 24 56  1  0
 24 57  1  0
 25 58  1  0
 25 59  1  0
 26 60  1  0
 26 61  1  0
 28 62  1  0
 29 63  1  0
 30 64  1  0
 32 65  1  0
 33 66  1  0
 34 67  1  0
M  END
>  <meeko>  (5) 
{"free_energy": -9.021, "intermolecular_energy": -11.407, "internal_energy": -3.284}

$$$$

     RDKit          3D

 67 70  0  0  0  0  0  0  0  0999 V2000
  -19.6330   13.3820  -29.1100 C   0  0  0  0  0  0  0  0  0  0  0  0
  -20.9700   14.0930  -28.8770 C   0  0  0  0  0  0  0  0  0  0  0  0
  -21.9280   13.7010  -30.0210 C   0  0  0  0  0  0  0  0  0  0  0  0
  -21.5880   13.6180  -27.5650 C   0  0  0  0  0  0  0  0  0  0  0  0
  -20.6800   15.6370  -28.8010 C   0  0  0  0  0  0  0  0  0  0  0  0
  -21.7440   16.5420  -28.6980 C   0  0  0  0  0  0  0  0  0  0  0  0
  -21.4900   17.9180  -28.6250 C   0  0  0  0  0  0  0  0  0  0  0  0
  -20.1690   18.3750  -28.6420 C   0  0  0  0  0  0  0  0  0  0  0  0
  -19.9390   19.8370  -28.5650 N   0  0  0  0  0  0  0  0  0  0  0  0
  -20.0110   20.7280  -29.7300 C   0  0  0  0  0  0  0  0  0  0  0  0
  -19.7530   21.8680  -29.5540 O   0  0  0  0  0  0  0  0  0  0  0  0
  -20.4090   20.2110  -31.1310 C   0  0  0  0  0  0  0  0  0  0  0  0
  -20.0910   20.7380  -32.3690 C   0  0  0  0  0  0  0  0  0  0  0  0
  -20.6210   19.9530  -33.2990 N   0  0  0  0  0  0  0  0  0  0  0  0
  -21.2530   18.9630  -32.6730 C   0  0  0  0  0  0  0  0  0  0  0  0
  -21.1150   19.1210  -31.3410 N   0  0  0  0  0  0  0  0  0  0  0  0
  -19.7980   20.3970  -27.2530 C   0  0  0  0  0  0  0  0  0  0  0  0
  -19.6160   19.2260  -26.2440 C   0  0  0  0  0  0  0  0  0  0  0  0
  -18.5290   18.9220  -25.8230 O   0  0  0  0  0  0  0  0  0  0  0  0
  -20.8370   18.5420  -25.7870 N   0  0  0  0  0  0  0  0  0  0  0  0
  -20.8280   17.4530  -24.8420 C   0  0  0  0  0  0  0  0  0  0  0  0
  -22.1990   16.7880  -24.9280 C   0  0  0  0  0  0  0  0  0  0  0  0
  -22.2850   15.5410  -24.0520 C   0  0  0  0  0  0  0  0  0  0  0  0
  -21.2530   14.5430  -24.4920 C   0  0  0  0  0  0  0  0  0  0  0  0
  -19.8500   15.1110  -24.5530 C   0  0  0  0  0  0  0  0  0  0  0  0
  -19.7290   16.4640  -25.2720 C   0  0  0  0  0  0  0  0  0  0  0  0
  -18.5920   21.2430  -26.9690 C   0  0  0  0  0  0  0  0  0  0  0  0
  -17.4770   21.0250  -27.6970 C   0  0  0  0  0  0  0  0  0  0  0  0
  -16.3780   21.8180  -27.4800 C   0  0  0  0  0  0  0  0  0  0  0  0
  -16.4350   22.8200  -26.5290 C   0  0  0  0  0  0  0  0  0  0  0  0
  -17.5580   23.0260  -25.8220 N   0  0  0  0  0  0  0  0  0  0  0  0
  -18.6330   22.2320  -26.0240 C   0  0  0  0  0  0  0  0  0  0  0  0
  -19.1130   17.4910  -28.7490 C   0  0  0  0  0  0  0  0  0  0  0  0
  -19.3680   16.1090  -28.8220 C   0  0  0  0  0  0  0  0  0  0  0  0
  -19.1738   13.1378  -28.1407 H   0  0  0  0  0  0  0  0  0  0  0  0
  -19.8044   12.4559  -29.6783 H   0  0  0  0  0  0  0  0  0  0  0  0
  -18.9610   14.0419  -29.6783 H   0  0  0  0  0  0  0  0  0  0  0  0
  -22.8674   13.3166  -29.5971 H   0  0  0  0  0  0  0  0  0  0  0  0
  -22.1399   14.5847  -30.6408 H   0  0  0  0  0  0  0  0  0  0  0  0
  -21.4597   12.9222  -30.6408 H   0  0  0  0  0  0  0  0  0  0  0  0
  -21.0296   14.0472  -26.7201 H   0  0  0  0  0  0  0  0  0  0  0  0
  -22.6373   13.9443  -27.5146 H   0  0  0  0  0  0  0  0  0  0  0  0
  -21.5426   12.5201  -27.5146 H   0  0  0  0  0  0  0  0  0  0  0  0
  -22.7797   16.1723  -28.6744 H   0  0  0  0  0  0  0  0  0  0  0  0
  -22.3232   18.6328  -28.5549 H   0  0  0  0  0  0  0  0  0  0  0  0
  -19.5017   21.6487  -32.5514 H   0  0  0  0  0  0  0  0  0  0  0  0
  -20.5552   20.0857  -34.3183 H   0  0  0  0  0  0  0  0  0  0  0  0
  -21.8010   18.1455  -33.1643 H   0  0  0  0  0  0  0  0  0  0  0  0
  -20.6947   21.0284  -27.1683 H   0  0  0  0  0  0  0  0  0  0  0  0
  -21.5930   18.8050  -26.1000 H   0  0  0  0  0  0  0  0  0  0  0  0
  -20.6299   17.7881  -23.8132 H   0  0  0  0  0  0  0  0  0  0  0  0
  -22.9638   17.5068  -24.5988 H   0  0  0  0  0  0  0  0  0  0  0  0
  -22.3637   16.4823  -25.9718 H   0  0  0  0  0  0  0  0  0  0  0  0
  -22.1028   15.8175  -23.0030 H   0  0  0  0  0  0  0  0  0  0  0  0
  -23.2866   15.0964  -24.1475 H   0  0  0  0  0  0  0  0  0  0  0  0
  -21.2575   13.7020  -23.7830 H   0  0  0  0  0  0  0  0  0  0  0  0
  -21.5199   14.2303  -25.5123 H   0  0  0  0  0  0  0  0  0  0  0  0
  -19.4881   15.2386  -23.5221 H   0  0  0  0  0  0  0  0  0  0  0  0
  -19.2537   14.3963  -25.1392 H   0  0  0  0  0  0  0  0  0  0  0  0
  -18.7474   16.9023  -25.0388 H   0  0  0  0  0  0  0  0  0  0  0  0
  -19.8414   16.2835  -26.3512 H   0  0  0  0  0  0  0  0  0  0  0  0
  -17.4493   20.2252  -28.4517 H   0  0  0  0  0  0  0  0  0  0  0  0
  -15.4569   21.6573  -28.0595 H   0  0  0  0  0  0  0  0  0  0  0  0
  -15.5536   23.4534  -26.3501 H   0  0  0  0  0  0  0  0  0  0  0  0
  -19.5444   22.3813  -25.4265 H   0  0  0  0  0  0  0  0  0  0  0  0
  -18.0789   17.8651  -28.7770 H   0  0  0  0  0  0  0  0  0  0  0  0
  -18.5306   15.3995  -28.8958 H   0  0  0  0  0  0  0  0  0  0  0  0
  1  2  1  0
  2  3  1  0
  2  4  1  0
  2  5  1  0
  5  6  2  0
  6  7  1  0
  7  8  2  0
  8  9  1  0
  9 10  1  0
 10 11  2  0
 10 12  1  0
 12 13  2  0
 13 14  1  0
 14 15  1  0
 15 16  2  0
  9 17  1  0
 17 18  1  0
 18 19  2  0
 18 20  1  0
 20 21  1  0
 21 22  1  0
 22 23  1  0
 23 24  1  0
 24 25  1  0
 25 26  1  0
 17 27  1  0
 27 28  2  0
 28 29  1  0
 29 30  2  0
 30 31  1  0
 31 32  2  0
  8 33  1  0
 33 34  2  0
 34  5  1  0
 16 12  1  0
 26 21  1  0
 32 27  1  0
  1 35  1  0
  1 36  1  0
  1 37  1  0
  3 38  1  0
  3 39  1  0
  3 40  1  0
  4 41  1  0
  4 42  1  0
  4 43  1  0
  6 44  1  0
  7 45  1  0
 13 46  1  0
 14 47  1  0
 15 48  1  0
 17 49  1  0
 20 50  1  0
 21 51  1  0
 22 52  1  0
 22 53  1  0
 23 54  1  0
 23 55  1  0
 24 56  1  0
 24 57  1  0
 25 58  1  0
 25 59  1  0
 26 60  1  0
 26 61  1  0
 28 62  1  0
 29 63  1  0
 30 64  1  0
 32 65  1  0
 33 66  1  0
 34 67  1  0
M  END
>  <meeko>  (6) 
{"free_energy": -8.973, "intermolecular_energy": -11.36, "internal_energy": -3.244}

$$$$

     RDKit          3D

 67 70  0  0  0  0  0  0  0  0999 V2000
  -21.0670   18.4840  -30.9850 C   0  0  0  0  0  0  0  0  0  0  0  0
  -22.0880   17.4770  -30.4460 C   0  0  0  0  0  0  0  0  0  0  0  0
  -23.4990   18.0730  -30.6420 C   0  0  0  0  0  0  0  0  0  0  0  0
  -22.0120   16.1810  -31.2470 C   0  0  0  0  0  0  0  0  0  0  0  0
  -21.7290   17.1950  -28.9400 C   0  0  0  0  0  0  0  0  0  0  0  0
  -22.7430   17.1670  -27.9750 C   0  0  0  0  0  0  0  0  0  0  0  0
  -22.4280   16.9120  -26.6340 C   0  0  0  0  0  0  0  0  0  0  0  0
  -21.0990   16.6720  -26.2740 C   0  0  0  0  0  0  0  0  0  0  0  0
  -20.8030   16.4070  -24.8460 N   0  0  0  0  0  0  0  0  0  0  0  0
  -20.4360   17.4590  -23.8890 C   0  0  0  0  0  0  0  0  0  0  0  0
  -20.6060   17.2290  -22.7420 O   0  0  0  0  0  0  0  0  0  0  0  0
  -19.8540   18.8150  -24.3480 C   0  0  0  0  0  0  0  0  0  0  0  0
  -20.0720   20.0730  -23.8180 C   0  0  0  0  0  0  0  0  0  0  0  0
  -19.3460   20.9430  -24.5100 N   0  0  0  0  0  0  0  0  0  0  0  0
  -18.6910   20.2610  -25.4460 C   0  0  0  0  0  0  0  0  0  0  0  0
  -19.0000   18.9530  -25.3390 N   0  0  0  0  0  0  0  0  0  0  0  0
  -21.0470   15.0760  -24.3750 C   0  0  0  0  0  0  0  0  0  0  0  0
  -20.8060   14.0920  -25.5570 C   0  0  0  0  0  0  0  0  0  0  0  0
  -19.7930   13.4450  -25.6390 O   0  0  0  0  0  0  0  0  0  0  0  0
  -21.8930   13.9510  -26.5410 N   0  0  0  0  0  0  0  0  0  0  0  0
  -21.8200   13.0660  -27.6780 C   0  0  0  0  0  0  0  0  0  0  0  0
  -23.1270   13.2370  -28.4470 C   0  0  0  0  0  0  0  0  0  0  0  0
  -23.1350   12.4330  -29.7460 C   0  0  0  0  0  0  0  0  0  0  0  0
  -22.0100   12.8900  -30.6280 C   0  0  0  0  0  0  0  0  0  0  0  0
  -20.6590   12.8700  -29.9440 C   0  0  0  0  0  0  0  0  0  0  0  0
  -20.6300   13.5100  -28.5470 C   0  0  0  0  0  0  0  0  0  0  0  0
  -20.1420   14.5200  -23.3170 C   0  0  0  0  0  0  0  0  0  0  0  0
  -18.8200   14.7770  -23.4120 C   0  0  0  0  0  0  0  0  0  0  0  0
  -17.9820   14.3120  -22.4300 C   0  0  0  0  0  0  0  0  0  0  0  0
  -18.5030   13.5960  -21.3690 C   0  0  0  0  0  0  0  0  0  0  0  0
  -19.8230   13.3580  -21.2890 N   0  0  0  0  0  0  0  0  0  0  0  0
  -20.6440   13.8010  -22.2670 C   0  0  0  0  0  0  0  0  0  0  0  0
  -20.0900   16.7030  -27.2180 C   0  0  0  0  0  0  0  0  0  0  0  0
  -20.4070   16.9590  -28.5650 C   0  0  0  0  0  0  0  0  0  0  0  0
  -20.5629   18.9812  -30.1432 H   0  0  0  0  0  0  0  0  0  0  0  0
  -20.3218   17.9575  -31.5994 H   0  0  0  0  0  0  0  0  0  0  0  0
  -21.5832   19.2364  -31.5994 H   0  0  0  0  0  0  0  0  0  0  0  0
  -23.9553   18.2657  -29.6598 H   0  0  0  0  0  0  0  0  0  0  0  0
  -23.4239   19.0163  -31.2029 H   0  0  0  0  0  0  0  0  0  0  0  0
  -24.1229   17.3615  -31.2029 H   0  0  0  0  0  0  0  0  0  0  0  0
  -21.9619   15.3259  -30.5569 H   0  0  0  0  0  0  0  0  0  0  0  0
  -22.9063   16.0887  -31.8808 H   0  0  0  0  0  0  0  0  0  0  0  0
  -21.1131   16.1939  -31.8808 H   0  0  0  0  0  0  0  0  0  0  0  0
  -23.7876   17.3453  -28.2700 H   0  0  0  0  0  0  0  0  0  0  0  0
  -23.2200   16.9008  -25.8707 H   0  0  0  0  0  0  0  0  0  0  0  0
  -20.7318   20.3116  -22.9708 H   0  0  0  0  0  0  0  0  0  0  0  0
  -19.2986   21.9596  -24.3513 H   0  0  0  0  0  0  0  0  0  0  0  0
  -18.0061   20.6953  -26.1891 H   0  0  0  0  0  0  0  0  0  0  0  0
  -22.0615   15.1568  -23.9575 H   0  0  0  0  0  0  0  0  0  0  0  0
  -22.6050   14.4200  -26.4330 H   0  0  0  0  0  0  0  0  0  0  0  0
  -21.6812   12.0143  -27.3871 H   0  0  0  0  0  0  0  0  0  0  0  0
  -23.9592   12.8966  -27.8133 H   0  0  0  0  0  0  0  0  0  0  0  0
  -23.2333   14.3011  -28.7049 H   0  0  0  0  0  0  0  0  0  0  0  0
  -23.0091   11.3647  -29.5161 H   0  0  0  0  0  0  0  0  0  0  0  0
  -24.0923   12.5876  -30.2654 H   0  0  0  0  0  0  0  0  0  0  0  0
  -21.9654   12.2288  -31.5060 H   0  0  0  0  0  0  0  0  0  0  0  0
  -22.2181   13.9347  -30.9022 H   0  0  0  0  0  0  0  0  0  0  0  0
  -20.3415   11.8214  -29.8459 H   0  0  0  0  0  0  0  0  0  0  0  0
  -19.9866   13.4723  -30.5726 H   0  0  0  0  0  0  0  0  0  0  0  0
  -19.6961   13.2192  -28.0437 H   0  0  0  0  0  0  0  0  0  0  0  0
  -20.6940   14.6007  -28.6744 H   0  0  0  0  0  0  0  0  0  0  0  0
  -18.4213   15.3496  -24.2624 H   0  0  0  0  0  0  0  0  0  0  0  0
  -16.9011   14.5081  -22.4870 H   0  0  0  0  0  0  0  0  0  0  0  0
  -17.8318   13.2179  -20.5838 H   0  0  0  0  0  0  0  0  0  0  0  0
  -21.7210   13.5824  -22.2184 H   0  0  0  0  0  0  0  0  0  0  0  0
  -19.0460   16.5287  -26.9184 H   0  0  0  0  0  0  0  0  0  0  0  0
  -19.6104   16.9729  -29.3234 H   0  0  0  0  0  0  0  0  0  0  0  0
  1  2  1  0
  2  3  1  0
  2  4  1  0
  2  5  1  0
  5  6  2  0
  6  7  1  0
  7  8  2  0
  8  9  1  0
  9 10  1  0
 10 11  2  0
 10 12  1  0
 12 13  2  0
 13 14  1  0
 14 15  1  0
 15 16  2  0
  9 17  1  0
 17 18  1  0
 18 19  2  0
 18 20  1  0
 20 21  1  0
 21 22  1  0
 22 23  1  0
 23 24  1  0
 24 25  1  0
 25 26  1  0
 17 27  1  0
 27 28  2  0
 28 29  1  0
 29 30  2  0
 30 31  1  0
 31 32  2  0
  8 33  1  0
 33 34  2  0
 34  5  1  0
 16 12  1  0
 26 21  1  0
 32 27  1  0
  1 35  1  0
  1 36  1  0
  1 37  1  0
  3 38  1  0
  3 39  1  0
  3 40  1  0
  4 41  1  0
  4 42  1  0
  4 43  1  0
  6 44  1  0
  7 45  1  0
 13 46  1  0
 14 47  1  0
 15 48  1  0
 17 49  1  0
 20 50  1  0
 21 51  1  0
 22 52  1  0
 22 53  1  0
 23 54  1  0
 23 55  1  0
 24 56  1  0
 24 57  1  0
 25 58  1  0
 25 59  1  0
 26 60  1  0
 26 61  1  0
 28 62  1  0
 29 63  1  0
 30 64  1  0
 32 65  1  0
 33 66  1  0
 34 67  1  0
M  END
>  <meeko>  (7) 
{"free_energy": -8.483, "intermolecular_energy": -10.869, "internal_energy": -3.179}

$$$$

     RDKit          3D

 67 70  0  0  0  0  0  0  0  0999 V2000
  -18.2850   21.8940  -26.0350 C   0  0  0  0  0  0  0  0  0  0  0  0
  -18.0870   21.0520  -27.2990 C   0  0  0  0  0  0  0  0  0  0  0  0
  -18.5810   21.8760  -28.5070 C   0  0  0  0  0  0  0  0  0  0  0  0
  -16.6020   20.7650  -27.5040 C   0  0  0  0  0  0  0  0  0  0  0  0
  -18.8680   19.7010  -27.0980 C   0  0  0  0  0  0  0  0  0  0  0  0
  -19.4360   19.0540  -28.2020 C   0  0  0  0  0  0  0  0  0  0  0  0
  -20.1290   17.8480  -28.0290 C   0  0  0  0  0  0  0  0  0  0  0  0
  -20.2340   17.2940  -26.7500 C   0  0  0  0  0  0  0  0  0  0  0  0
  -20.9750   16.0190  -26.6040 N   0  0  0  0  0  0  0  0  0  0  0  0
  -20.4360   14.7190  -27.0210 C   0  0  0  0  0  0  0  0  0  0  0  0
  -19.3960   14.3930  -26.5630 O   0  0  0  0  0  0  0  0  0  0  0  0
  -21.1840   13.8060  -28.0210 C   0  0  0  0  0  0  0  0  0  0  0  0
  -20.7140   13.2390  -29.1900 C   0  0  0  0  0  0  0  0  0  0  0  0
  -21.6910   12.5070  -29.7130 N   0  0  0  0  0  0  0  0  0  0  0  0
  -22.7430   12.6080  -28.9040 C   0  0  0  0  0  0  0  0  0  0  0  0
  -22.4250   13.4010  -27.8620 N   0  0  0  0  0  0  0  0  0  0  0  0
  -22.2080   16.0720  -25.8760 C   0  0  0  0  0  0  0  0  0  0  0  0
  -21.8970   15.7960  -24.3750 C   0  0  0  0  0  0  0  0  0  0  0  0
  -22.7540   15.8650  -23.5320 O   0  0  0  0  0  0  0  0  0  0  0  0
  -20.5180   15.3980  -24.0420 N   0  0  0  0  0  0  0  0  0  0  0  0
  -20.0860   15.0950  -22.7000 C   0  0  0  0  0  0  0  0  0  0  0  0
  -21.1020   14.1110  -22.1260 C   0  0  0  0  0  0  0  0  0  0  0  0
  -20.6980   13.6180  -20.7380 C   0  0  0  0  0  0  0  0  0  0  0  0
  -19.3690   12.9250  -20.8170 C   0  0  0  0  0  0  0  0  0  0  0  0
  -18.2890   13.7620  -21.4700 C   0  0  0  0  0  0  0  0  0  0  0  0
  -18.6980   14.4350  -22.7890 C   0  0  0  0  0  0  0  0  0  0  0  0
  -22.9360   17.3820  -25.8060 C   0  0  0  0  0  0  0  0  0  0  0  0
  -23.8730   17.6390  -26.7430 C   0  0  0  0  0  0  0  0  0  0  0  0
  -24.5790   18.8130  -26.6700 C   0  0  0  0  0  0  0  0  0  0  0  0
  -24.3210   19.7030  -25.6450 C   0  0  0  0  0  0  0  0  0  0  0  0
  -23.3910   19.4250  -24.7170 N   0  0  0  0  0  0  0  0  0  0  0  0
  -22.6840   18.2760  -24.8010 C   0  0  0  0  0  0  0  0  0  0  0  0
  -19.6820   17.9290  -25.6530 C   0  0  0  0  0  0  0  0  0  0  0  0
  -18.9870   19.1390  -25.8280 C   0  0  0  0  0  0  0  0  0  0  0  0
  -18.1365   21.2624  -25.1467 H   0  0  0  0  0  0  0  0  0  0  0  0
  -17.5561   22.7177  -26.0252 H   0  0  0  0  0  0  0  0  0  0  0  0
  -19.3047   22.3066  -26.0252 H   0  0  0  0  0  0  0  0  0  0  0  0
  -19.1157   22.7679  -28.1484 H   0  0  0  0  0  0  0  0  0  0  0  0
  -17.7194   22.1855  -29.1167 H   0  0  0  0  0  0  0  0  0  0  0  0
  -19.2600   21.2619  -29.1167 H   0  0  0  0  0  0  0  0  0  0  0  0
  -16.1085   20.6696  -26.5256 H   0  0  0  0  0  0  0  0  0  0  0  0
  -16.4841   19.8274  -28.0671 H   0  0  0  0  0  0  0  0  0  0  0  0
  -16.1432   21.5911  -28.0671 H   0  0  0  0  0  0  0  0  0  0  0  0
  -19.3383   19.4925  -29.2061 H   0  0  0  0  0  0  0  0  0  0  0  0
  -20.5862   17.3420  -28.8921 H   0  0  0  0  0  0  0  0  0  0  0  0
  -19.7073   13.3707  -29.6133 H   0  0  0  0  0  0  0  0  0  0  0  0
  -21.6433   11.9610  -30.5851 H   0  0  0  0  0  0  0  0  0  0  0  0
  -23.7170   12.1216  -29.0610 H   0  0  0  0  0  0  0  0  0  0  0  0
  -22.8351   15.3533  -26.4239 H   0  0  0  0  0  0  0  0  0  0  0  0
  -19.9440   15.3450  -24.6790 H   0  0  0  0  0  0  0  0  0  0  0  0
  -20.0200   15.9905  -22.0647 H   0  0  0  0  0  0  0  0  0  0  0  0
  -22.0795   14.6104  -22.0552 H   0  0  0  0  0  0  0  0  0  0  0  0
  -21.1485   13.2401  -22.7963 H   0  0  0  0  0  0  0  0  0  0  0  0
  -20.6238   14.4750  -20.0524 H   0  0  0  0  0  0  0  0  0  0  0  0
  -21.4560   12.9131  -20.3657 H   0  0  0  0  0  0  0  0  0  0  0  0
  -19.0457   12.6746  -19.7958 H   0  0  0  0  0  0  0  0  0  0  0  0
  -19.5073   12.0305  -21.4421 H   0  0  0  0  0  0  0  0  0  0  0  0
  -17.9933   14.5502  -20.7620 H   0  0  0  0  0  0  0  0  0  0  0  0
  -17.4714   13.0694  -21.7188 H   0  0  0  0  0  0  0  0  0  0  0  0
  -17.9545   15.2063  -23.0384 H   0  0  0  0  0  0  0  0  0  0  0  0
  -18.7437   13.6566  -23.5649 H   0  0  0  0  0  0  0  0  0  0  0  0
  -24.0673   16.9191  -27.5517 H   0  0  0  0  0  0  0  0  0  0  0  0
  -25.3463   19.0446  -27.4234 H   0  0  0  0  0  0  0  0  0  0  0  0
  -24.8822   20.6474  -25.5887 H   0  0  0  0  0  0  0  0  0  0  0  0
  -21.9025   18.0586  -24.0581 H   0  0  0  0  0  0  0  0  0  0  0  0
  -19.7858   17.4905  -24.6495 H   0  0  0  0  0  0  0  0  0  0  0  0
  -18.5362   19.6432  -24.9605 H   0  0  0  0  0  0  0  0  0  0  0  0
  1  2  1  0
  2  3  1  0
  2  4  1  0
  2  5  1  0
  5  6  2  0
  6  7  1  0
  7  8  2  0
  8  9  1  0
  9 10  1  0
 10 11  2  0
 10 12  1  0
 12 13  2  0
 13 14  1  0
 14 15  1  0
 15 16  2  0
  9 17  1  0
 17 18  1  0
 18 19  2  0
 18 20  1  0
 20 21  1  0
 21 22  1  0
 22 23  1  0
 23 24  1  0
 24 25  1  0
 25 26  1  0
 17 27  1  0
 27 28  2  0
 28 29  1  0
 29 30  2  0
 30 31  1  0
 31 32  2  0
  8 33  1  0
 33 34  2  0
 34  5  1  0
 16 12  1  0
 26 21  1  0
 32 27  1  0
  1 35  1  0
  1 36  1  0
  1 37  1  0
  3 38  1  0
  3 39  1  0
  3 40  1  0
  4 41  1  0
  4 42  1  0
  4 43  1  0
  6 44  1  0
  7 45  1  0
 13 46  1  0
 14 47  1  0
 15 48  1  0
 17 49  1  0
 20 50  1  0
 21 51  1  0
 22 52  1  0
 22 53  1  0
 23 54  1  0
 23 55  1  0
 24 56  1  0
 24 57  1  0
 25 58  1  0
 25 59  1  0
 26 60  1  0
 26 61  1  0
 28 62  1  0
 29 63  1  0
 30 64  1  0
 32 65  1  0
 33 66  1  0
 34 67  1  0
M  END
>  <meeko>  (8) 
{"free_energy": -8.367, "intermolecular_energy": -10.754, "internal_energy": -3.269}

$$$$

     RDKit          3D

 67 70  0  0  0  0  0  0  0  0999 V2000
  -21.1010   15.8130  -21.0780 C   0  0  0  0  0  0  0  0  0  0  0  0
  -20.9480   14.4180  -21.6910 C   0  0  0  0  0  0  0  0  0  0  0  0
  -19.8490   13.6680  -20.9080 C   0  0  0  0  0  0  0  0  0  0  0  0
  -22.2490   13.6370  -21.5340 C   0  0  0  0  0  0  0  0  0  0  0  0
  -20.6170   14.6030  -23.2180 C   0  0  0  0  0  0  0  0  0  0  0  0
  -19.3190   14.9500  -23.6130 C   0  0  0  0  0  0  0  0  0  0  0  0
  -19.0190   15.1120  -24.9710 C   0  0  0  0  0  0  0  0  0  0  0  0
  -20.0210   14.9090  -25.9250 C   0  0  0  0  0  0  0  0  0  0  0  0
  -19.6670   15.0910  -27.3530 N   0  0  0  0  0  0  0  0  0  0  0  0
  -19.6470   13.9910  -28.3260 C   0  0  0  0  0  0  0  0  0  0  0  0
  -18.5930   13.6610  -28.7460 O   0  0  0  0  0  0  0  0  0  0  0  0
  -20.9430   13.2890  -28.7930 C   0  0  0  0  0  0  0  0  0  0  0  0
  -21.1600   12.5520  -29.9420 C   0  0  0  0  0  0  0  0  0  0  0  0
  -22.4130   12.1130  -29.9190 N   0  0  0  0  0  0  0  0  0  0  0  0
  -22.9710   12.5570  -28.7950 C   0  0  0  0  0  0  0  0  0  0  0  0
  -22.0630   13.2740  -28.1030 N   0  0  0  0  0  0  0  0  0  0  0  0
  -19.4950   16.4390  -27.8060 C   0  0  0  0  0  0  0  0  0  0  0  0
  -20.5450   16.7130  -28.9220 C   0  0  0  0  0  0  0  0  0  0  0  0
  -20.3080   17.4570  -29.8390 O   0  0  0  0  0  0  0  0  0  0  0  0
  -21.8210   15.9830  -28.8320 N   0  0  0  0  0  0  0  0  0  0  0  0
  -22.8820   16.1210  -29.8000 C   0  0  0  0  0  0  0  0  0  0  0  0
  -23.1550   17.6160  -29.9370 C   0  0  0  0  0  0  0  0  0  0  0  0
  -24.1880   17.9100  -31.0220 C   0  0  0  0  0  0  0  0  0  0  0  0
  -23.6890   17.4020  -32.3440 C   0  0  0  0  0  0  0  0  0  0  0  0
  -23.2800   15.9450  -32.3160 C   0  0  0  0  0  0  0  0  0  0  0  0
  -22.3780   15.5460  -31.1360 C   0  0  0  0  0  0  0  0  0  0  0  0
  -19.7690   17.5540  -26.8400 C   0  0  0  0  0  0  0  0  0  0  0  0
  -21.0500   17.7870  -26.4860 C   0  0  0  0  0  0  0  0  0  0  0  0
  -21.3150   18.7750  -25.5710 C   0  0  0  0  0  0  0  0  0  0  0  0
  -20.2730   19.5040  -25.0310 C   0  0  0  0  0  0  0  0  0  0  0  0
  -19.0040   19.2510  -25.3910 N   0  0  0  0  0  0  0  0  0  0  0  0
  -18.7460   18.2900  -26.3060 C   0  0  0  0  0  0  0  0  0  0  0  0
  -21.3060   14.5720  -25.5450 C   0  0  0  0  0  0  0  0  0  0  0  0
  -21.6070   14.4100  -24.1810 C   0  0  0  0  0  0  0  0  0  0  0  0
  -21.0924   15.7343  -19.9808 H   0  0  0  0  0  0  0  0  0  0  0  0
  -20.2675   16.4513  -21.4064 H   0  0  0  0  0  0  0  0  0  0  0  0
  -22.0531   16.2554  -21.4064 H   0  0  0  0  0  0  0  0  0  0  0  0
  -20.0225   13.7864  -19.8282 H   0  0  0  0  0  0  0  0  0  0  0  0
  -19.8770   12.5998  -21.1689 H   0  0  0  0  0  0  0  0  0  0  0  0
  -18.8645   14.0835  -21.1689 H   0  0  0  0  0  0  0  0  0  0  0  0
  -22.4702   13.5042  -20.4647 H   0  0  0  0  0  0  0  0  0  0  0  0
  -23.0697   14.1919  -22.0121 H   0  0  0  0  0  0  0  0  0  0  0  0
  -22.1452   12.6518  -22.0121 H   0  0  0  0  0  0  0  0  0  0  0  0
  -18.5345   15.0954  -22.8557 H   0  0  0  0  0  0  0  0  0  0  0  0
  -18.0038   15.3965  -25.2847 H   0  0  0  0  0  0  0  0  0  0  0  0
  -20.4234   12.3623  -30.7366 H   0  0  0  0  0  0  0  0  0  0  0  0
  -22.8695   11.5349  -30.6389 H   0  0  0  0  0  0  0  0  0  0  0  0
  -24.0082   12.3688  -28.4807 H   0  0  0  0  0  0  0  0  0  0  0  0
  -18.4278   16.4630  -28.0715 H   0  0  0  0  0  0  0  0  0  0  0  0
  -21.9390   15.4480  -28.1690 H   0  0  0  0  0  0  0  0  0  0  0  0
  -23.7990   15.5913  -29.5025 H   0  0  0  0  0  0  0  0  0  0  0  0
  -23.5301   17.9983  -28.9762 H   0  0  0  0  0  0  0  0  0  0  0  0
  -22.2136   18.1094  -30.2205 H   0  0  0  0  0  0  0  0  0  0  0  0
  -25.1348   17.4093  -30.7712 H   0  0  0  0  0  0  0  0  0  0  0  0
  -24.3512   18.9959  -31.0861 H   0  0  0  0  0  0  0  0  0  0  0  0
  -24.4893   17.5246  -33.0886 H   0  0  0  0  0  0  0  0  0  0  0  0
  -22.7911   17.9851  -32.5964 H   0  0  0  0  0  0  0  0  0  0  0  0
  -24.1940   15.3348  -32.2685 H   0  0  0  0  0  0  0  0  0  0  0  0
  -22.6879   15.7742  -33.2272 H   0  0  0  0  0  0  0  0  0  0  0  0
  -22.3543   14.4487  -31.0632 H   0  0  0  0  0  0  0  0  0  0  0  0
  -21.3746   15.9559  -31.3236 H   0  0  0  0  0  0  0  0  0  0  0  0
  -21.8678   17.1953  -26.9232 H   0  0  0  0  0  0  0  0  0  0  0  0
  -22.3516   18.9854  -25.2691 H   0  0  0  0  0  0  0  0  0  0  0  0
  -20.4845   20.2983  -24.3000 H   0  0  0  0  0  0  0  0  0  0  0  0
  -17.7100   18.0988  -26.6226 H   0  0  0  0  0  0  0  0  0  0  0  0
  -22.0888   14.4313  -26.3049 H   0  0  0  0  0  0  0  0  0  0  0  0
  -22.6253   14.1305  -23.8730 H   0  0  0  0  0  0  0  0  0  0  0  0
  1  2  1  0
  2  3  1  0
  2  4  1  0
  2  5  1  0
  5  6  2  0
  6  7  1  0
  7  8  2  0
  8  9  1  0
  9 10  1  0
 10 11  2  0
 10 12  1  0
 12 13  2  0
 13 14  1  0
 14 15  1  0
 15 16  2  0
  9 17  1  0
 17 18  1  0
 18 19  2  0
 18 20  1  0
 20 21  1  0
 21 22  1  0
 22 23  1  0
 23 24  1  0
 24 25  1  0
 25 26  1  0
 17 27  1  0
 27 28  2  0
 28 29  1  0
 29 30  2  0
 30 31  1  0
 31 32  2  0
  8 33  1  0
 33 34  2  0
 34  5  1  0
 16 12  1  0
 26 21  1  0
 32 27  1  0
  1 35  1  0
  1 36  1  0
  1 37  1  0
  3 38  1  0
  3 39  1  0
  3 40  1  0
  4 41  1  0
  4 42  1  0
  4 43  1  0
  6 44  1  0
  7 45  1  0
 13 46  1  0
 14 47  1  0
 15 48  1  0
 17 49  1  0
 20 50  1  0
 21 51  1  0
 22 52  1  0
 22 53  1  0
 23 54  1  0
 23 55  1  0
 24 56  1  0
 24 57  1  0
 25 58  1  0
 25 59  1  0
 26 60  1  0
 26 61  1  0
 28 62  1  0
 29 63  1  0
 30 64  1  0
 32 65  1  0
 33 66  1  0
 34 67  1  0
M  END
>  <meeko>  (9) 
{"free_energy": -7.88, "intermolecular_energy": -10.266, "internal_energy": -3.787}

$$$$

