
     RDKit          3D

 67 70  0  0  0  0  0  0  0  0999 V2000
  -16.3770   20.8570  -26.6250 C   0  0  0  0  0  0  0  0  0  0  0  0
  -17.8230   21.2430  -26.9490 C   0  0  0  0  0  0  0  0  0  0  0  0
  -18.2790   22.3010  -25.9220 C   0  0  0  0  0  0  0  0  0  0  0  0
  -17.8920   21.8770  -28.3360 C   0  0  0  0  0  0  0  0  0  0  0  0
  -18.6840   19.9270  -26.9210 C   0  0  0  0  0  0  0  0  0  0  0  0
  -19.0960   19.3890  -25.6960 C   0  0  0  0  0  0  0  0  0  0  0  0
  -19.8670   18.2200  -25.6660 C   0  0  0  0  0  0  0  0  0  0  0  0
  -20.2310   17.6060  -26.8680 C   0  0  0  0  0  0  0  0  0  0  0  0
  -21.0460   16.3700  -26.7980 N   0  0  0  0  0  0  0  0  0  0  0  0
  -22.4060   16.3290  -26.2460 C   0  0  0  0  0  0  0  0  0  0  0  0
  -23.2560   15.8840  -26.9360 O   0  0  0  0  0  0  0  0  0  0  0  0
  -22.7280   16.8480  -24.8260 C   0  0  0  0  0  0  0  0  0  0  0  0
  -23.2350   18.0780  -24.4500 C   0  0  0  0  0  0  0  0  0  0  0  0
  -23.3790   18.0770  -23.1300 N   0  0  0  0  0  0  0  0  0  0  0  0
  -22.9780   16.8890  -22.6850 C   0  0  0  0  0  0  0  0  0  0  0  0
  -22.5850   16.1340  -23.7300 N   0  0  0  0  0  0  0  0  0  0  0  0
  -20.5120   15.2110  -27.4490 C   0  0  0  0  0  0  0  0  0  0  0  0
  -20.0320   14.2170  -26.3510 C   0  0  0  0  0  0  0  0  0  0  0  0
  -19.3780   13.2430  -26.6270 O   0  0  0  0  0  0  0  0  0  0  0  0
  -20.3700   14.5480  -24.9560 N   0  0  0  0  0  0  0  0  0  0  0  0
  -19.9800   13.7320  -23.8320 C   0  0  0  0  0  0  0  0  0  0  0  0
  -18.7100   14.3560  -23.2610 C   0  0  0  0  0  0  0  0  0  0  0  0
  -18.2490   13.6490  -21.9880 C   0  0  0  0  0  0  0  0  0  0  0  0
  -19.3240   13.7380  -20.9450 C   0  0  0  0  0  0  0  0  0  0  0  0
  -20.6740   13.2450  -21.4240 C   0  0  0  0  0  0  0  0  0  0  0  0
  -21.1140   13.7860  -22.7930 C   0  0  0  0  0  0  0  0  0  0  0  0
  -21.4440   14.3570  -28.2550 C   0  0  0  0  0  0  0  0  0  0  0  0
  -21.6120   14.6560  -29.5610 C   0  0  0  0  0  0  0  0  0  0  0  0
  -22.4280   13.8600  -30.3240 C   0  0  0  0  0  0  0  0  0  0  0  0
  -23.0570   12.7730  -29.7470 C   0  0  0  0  0  0  0  0  0  0  0  0
  -22.8700   12.4870  -28.4480 N   0  0  0  0  0  0  0  0  0  0  0  0
  -22.0800   13.2840  -27.6930 C   0  0  0  0  0  0  0  0  0  0  0  0
  -19.8260   18.1260  -28.0820 C   0  0  0  0  0  0  0  0  0  0  0  0
  -19.0510   19.3000  -28.1120 C   0  0  0  0  0  0  0  0  0  0  0  0
  -16.2428   20.8212  -25.5338 H   0  0  0  0  0  0  0  0  0  0  0  0
  -16.1564   19.8685  -27.0542 H   0  0  0  0  0  0  0  0  0  0  0  0
  -15.6931   21.6040  -27.0542 H   0  0  0  0  0  0  0  0  0  0  0  0
  -18.1142   21.9186  -24.9039 H   0  0  0  0  0  0  0  0  0  0  0  0
  -17.6991   23.2247  -26.0651 H   0  0  0  0  0  0  0  0  0  0  0  0
  -19.3487   22.5137  -26.0651 H   0  0  0  0  0  0  0  0  0  0  0  0
  -18.0105   22.9660  -28.2359 H   0  0  0  0  0  0  0  0  0  0  0  0
  -16.9647   21.6581  -28.8858 H   0  0  0  0  0  0  0  0  0  0  0  0
  -18.7505   21.4637  -28.8858 H   0  0  0  0  0  0  0  0  0  0  0  0
  -18.8138   19.8851  -24.7556 H   0  0  0  0  0  0  0  0  0  0  0  0
  -20.1834   17.7887  -24.7048 H   0  0  0  0  0  0  0  0  0  0  0  0
  -23.4768   18.9115  -25.1259 H   0  0  0  0  0  0  0  0  0  0  0  0
  -23.7359   18.8539  -22.5556 H   0  0  0  0  0  0  0  0  0  0  0  0
  -22.9687   16.5731  -21.6314 H   0  0  0  0  0  0  0  0  0  0  0  0
  -19.7636   15.6463  -28.1275 H   0  0  0  0  0  0  0  0  0  0  0  0
  -20.8230   15.2620  -24.8050 H   0  0  0  0  0  0  0  0  0  0  0  0
  -19.7985   12.6840  -24.1125 H   0  0  0  0  0  0  0  0  0  0  0  0
  -17.9112   14.2884  -24.0142 H   0  0  0  0  0  0  0  0  0  0  0  0
  -18.9297   15.4037  -23.0079 H   0  0  0  0  0  0  0  0  0  0  0  0
  -18.0419   12.5919  -22.2109 H   0  0  0  0  0  0  0  0  0  0  0  0
  -17.3350   14.1322  -21.6125 H   0  0  0  0  0  0  0  0  0  0  0  0
  -19.0195   13.1322  -20.0788 H   0  0  0  0  0  0  0  0  0  0  0  0
  -19.4401   14.8018  -20.6904 H   0  0  0  0  0  0  0  0  0  0  0  0
  -20.6337   12.1476  -21.4876 H   0  0  0  0  0  0  0  0  0  0  0  0
  -21.4119   13.6133  -20.6961 H   0  0  0  0  0  0  0  0  0  0  0  0
  -21.9577   13.1819  -23.1580 H   0  0  0  0  0  0  0  0  0  0  0  0
  -21.4023   14.8395  -22.6627 H   0  0  0  0  0  0  0  0  0  0  0  0
  -21.1028   15.5237  -30.0058 H   0  0  0  0  0  0  0  0  0  0  0  0
  -22.5810   14.0857  -31.3897 H   0  0  0  0  0  0  0  0  0  0  0  0
  -23.7160   12.1371  -30.3564 H   0  0  0  0  0  0  0  0  0  0  0  0
  -21.9483   13.0685  -26.6224 H   0  0  0  0  0  0  0  0  0  0  0  0
  -20.1078   17.6251  -29.0199 H   0  0  0  0  0  0  0  0  0  0  0  0
  -18.7340   19.7241  -29.0762 H   0  0  0  0  0  0  0  0  0  0  0  0
  1  2  1  0
  2  3  1  0
  2  4  1  0
  2  5  1  0
  5  6  2  0
  6  7  1  0
  7  8  2  0
  8  9  1  0
  9 10  1  0
 10 11  2  0
 10 12  1  0
 12 13  2  0
 13 14  1  0
 14 15  1  0
 15 16  2  0
  9 17  1  0
 17 18  1  0
 18 19  2  0
 18 20  1  0
 20 21  1  0
 21 22  1  0
 22 23  1  0
 23 24  1  0
 24 25  1  0
 25 26  1  0
 17 27  1  0
 27 28  2  0
 28 29  1  0
 29 30  2  0
 30 31  1  0
 31 32  2  0
  8 33  1  0
 33 34  2  0
 34  5  1  0
 16 12  1  0
 26 21  1  0
 32 27  1  0
  1 35  1  0
  1 36  1  0
  1 37  1  0
  3 38  1  0
  3 39  1  0
  3 40  1  0
  4 41  1  0
  4 42  1  0
  4 43  1  0
  6 44  1  0
  7 45  1  0
 13 46  1  0
 14 47  1  0
 15 48  1  0
 17 49  1  0
 20 50  1  0
 21 51  1  0
 22 52  1  0
 22 53  1  0
 23 54  1  0
 23 55  1  0
 24 56  1  0
 24 57  1  0
 25 58  1  0
 25 59  1  0
 26 60  1  0
 26 61  1  0
 28 62  1  0
 29 63  1  0
 30 64  1  0
 32 65  1  0
 33 66  1  0
 34 67  1  0
M  END
>  <meeko>  (1) 
{"free_energy": -9.303, "intermolecular_energy": -11.69, "internal_energy": -3.315}

$$$$

     RDKit          3D

 67 70  0  0  0  0  0  0  0  0999 V2000
  -23.9370   16.9920  -33.6040 C   0  0  0  0  0  0  0  0  0  0  0  0
  -24.5480   17.3160  -32.2370 C   0  0  0  0  0  0  0  0  0  0  0  0
  -25.1490   18.7360  -32.3050 C   0  0  0  0  0  0  0  0  0  0  0  0
  -25.6820   16.3420  -31.9320 C   0  0  0  0  0  0  0  0  0  0  0  0
  -23.4110   17.1650  -31.1610 C   0  0  0  0  0  0  0  0  0  0  0  0
  -22.2760   16.3960  -31.4490 C   0  0  0  0  0  0  0  0  0  0  0  0
  -21.2590   16.2630  -30.4950 C   0  0  0  0  0  0  0  0  0  0  0  0
  -21.3810   16.9140  -29.2640 C   0  0  0  0  0  0  0  0  0  0  0  0
  -20.2860   16.7480  -28.2790 N   0  0  0  0  0  0  0  0  0  0  0  0
  -19.4760   17.8650  -27.7770 C   0  0  0  0  0  0  0  0  0  0  0  0
  -18.5460   18.1940  -28.4280 O   0  0  0  0  0  0  0  0  0  0  0  0
  -19.8110   18.5870  -26.4510 C   0  0  0  0  0  0  0  0  0  0  0  0
  -20.9690   19.2540  -26.1000 C   0  0  0  0  0  0  0  0  0  0  0  0
  -20.8290   19.6950  -24.8550 N   0  0  0  0  0  0  0  0  0  0  0  0
  -19.6240   19.3210  -24.4330 C   0  0  0  0  0  0  0  0  0  0  0  0
  -19.0040   18.6340  -25.4130 N   0  0  0  0  0  0  0  0  0  0  0  0
  -20.1410   15.4490  -27.6910 C   0  0  0  0  0  0  0  0  0  0  0  0
  -20.4410   15.5700  -26.1680 C   0  0  0  0  0  0  0  0  0  0  0  0
  -21.4190   16.1450  -25.7640 O   0  0  0  0  0  0  0  0  0  0  0  0
  -19.5020   14.9060  -25.2480 N   0  0  0  0  0  0  0  0  0  0  0  0
  -19.6590   14.9170  -23.8140 C   0  0  0  0  0  0  0  0  0  0  0  0
  -20.8320   13.9940  -23.4970 C   0  0  0  0  0  0  0  0  0  0  0  0
  -21.0360   13.8270  -21.9930 C   0  0  0  0  0  0  0  0  0  0  0  0
  -19.7990   13.2400  -21.3780 C   0  0  0  0  0  0  0  0  0  0  0  0
  -18.5370   14.0080  -21.7090 C   0  0  0  0  0  0  0  0  0  0  0  0
  -18.3640   14.3650  -23.1940 C   0  0  0  0  0  0  0  0  0  0  0  0
  -21.0930   14.3690  -28.1110 C   0  0  0  0  0  0  0  0  0  0  0  0
  -20.7100   13.5320  -29.0980 C   0  0  0  0  0  0  0  0  0  0  0  0
  -21.5510   12.5120  -29.4660 C   0  0  0  0  0  0  0  0  0  0  0  0
  -22.7650   12.3610  -28.8220 C   0  0  0  0  0  0  0  0  0  0  0  0
  -23.1240   13.2000  -27.8370 N   0  0  0  0  0  0  0  0  0  0  0  0
  -22.3020   14.2150  -27.4890 C   0  0  0  0  0  0  0  0  0  0  0  0
  -22.4990   17.6700  -28.9680 C   0  0  0  0  0  0  0  0  0  0  0  0
  -23.5210   17.8030  -29.9260 C   0  0  0  0  0  0  0  0  0  0  0  0
  -22.9732   16.4809  -33.4630 H   0  0  0  0  0  0  0  0  0  0  0  0
  -24.6203   16.3377  -34.1653 H   0  0  0  0  0  0  0  0  0  0  0  0
  -23.7788   17.9247  -34.1653 H   0  0  0  0  0  0  0  0  0  0  0  0
  -25.3096   19.1154  -31.2851 H   0  0  0  0  0  0  0  0  0  0  0  0
  -24.4558   19.4024  -32.8392 H   0  0  0  0  0  0  0  0  0  0  0  0
  -26.1100   18.7022  -32.8392 H   0  0  0  0  0  0  0  0  0  0  0  0
  -25.7973   16.2430  -30.8425 H   0  0  0  0  0  0  0  0  0  0  0  0
  -26.6184   16.7217  -32.3668 H   0  0  0  0  0  0  0  0  0  0  0  0
  -25.4480   15.3590  -32.3668 H   0  0  0  0  0  0  0  0  0  0  0  0
  -22.1834   15.8964  -32.4246 H   0  0  0  0  0  0  0  0  0  0  0  0
  -20.3713   15.6510  -30.7128 H   0  0  0  0  0  0  0  0  0  0  0  0
  -21.8525   19.3951  -26.7399 H   0  0  0  0  0  0  0  0  0  0  0  0
  -21.5254   20.2285  -24.3153 H   0  0  0  0  0  0  0  0  0  0  0  0
  -19.2006   19.5381  -23.4412 H   0  0  0  0  0  0  0  0  0  0  0  0
  -19.1270   15.1608  -28.0053 H   0  0  0  0  0  0  0  0  0  0  0  0
  -18.8280   14.4920  -25.5830 H   0  0  0  0  0  0  0  0  0  0  0  0
  -19.8479   15.9251  -23.4163 H   0  0  0  0  0  0  0  0  0  0  0  0
  -21.7472   14.4191  -23.9348 H   0  0  0  0  0  0  0  0  0  0  0  0
  -20.6110   13.0041  -23.9226 H   0  0  0  0  0  0  0  0  0  0  0  0
  -21.2393   14.8086  -21.5401 H   0  0  0  0  0  0  0  0  0  0  0  0
  -21.8875   13.1543  -21.8128 H   0  0  0  0  0  0  0  0  0  0  0  0
  -19.9243   13.2306  -20.2852 H   0  0  0  0  0  0  0  0  0  0  0  0
  -19.6802   12.2283  -21.7931 H   0  0  0  0  0  0  0  0  0  0  0  0
  -18.5462   14.9444  -21.1318 H   0  0  0  0  0  0  0  0  0  0  0  0
  -17.6976   13.3449  -21.4526 H   0  0  0  0  0  0  0  0  0  0  0  0
  -17.5750   15.1260  -23.2857 H   0  0  0  0  0  0  0  0  0  0  0  0
  -18.0972   13.4443  -23.7336 H   0  0  0  0  0  0  0  0  0  0  0  0
  -19.7399   13.6652  -29.5991 H   0  0  0  0  0  0  0  0  0  0  0  0
  -21.2608   11.8184  -30.2689 H   0  0  0  0  0  0  0  0  0  0  0  0
  -23.4424   11.5468  -29.1190 H   0  0  0  0  0  0  0  0  0  0  0  0
  -22.6064   14.9206  -26.7020 H   0  0  0  0  0  0  0  0  0  0  0  0
  -22.5895   18.1647  -27.9897 H   0  0  0  0  0  0  0  0  0  0  0  0
  -24.4089   18.4118  -29.7001 H   0  0  0  0  0  0  0  0  0  0  0  0
  1  2  1  0
  2  3  1  0
  2  4  1  0
  2  5  1  0
  5  6  2  0
  6  7  1  0
  7  8  2  0
  8  9  1  0
  9 10  1  0
 10 11  2  0
 10 12  1  0
 12 13  2  0
 13 14  1  0
 14 15  1  0
 15 16  2  0
  9 17  1  0
 17 18  1  0
 18 19  2  0
 18 20  1  0
 20 21  1  0
 21 22  1  0
 22 23  1  0
 23 24  1  0
 24 25  1  0
 25 26  1  0
 17 27  1  0
 27 28  2  0
 28 29  1  0
 29 30  2  0
 30 31  1  0
 31 32  2  0
  8 33  1  0
 33 34  2  0
 34  5  1  0
 16 12  1  0
 26 21  1  0
 32 27  1  0
  1 35  1  0
  1 36  1  0
  1 37  1  0
  3 38  1  0
  3 39  1  0
  3 40  1  0
  4 41  1  0
  4 42  1  0
  4 43  1  0
  6 44  1  0
  7 45  1  0
 13 46  1  0
 14 47  1  0
 15 48  1  0
 17 49  1  0
 20 50  1  0
 21 51  1  0
 22 52  1  0
 22 53  1  0
 23 54  1  0
 23 55  1  0
 24 56  1  0
 24 57  1  0
 25 58  1  0
 25 59  1  0
 26 60  1  0
 26 61  1  0
 28 62  1  0
 29 63  1  0
 30 64  1  0
 32 65  1  0
 33 66  1  0
 34 67  1  0
M  END
>  <meeko>  (2) 
{"free_energy": -9.225, "intermolecular_energy": -11.612, "internal_energy": -2.687}

$$$$

     RDKit          3D

 67 70  0  0  0  0  0  0  0  0999 V2000
  -21.8140   13.6200  -21.4290 C   0  0  0  0  0  0  0  0  0  0  0  0
  -20.6510   14.5660  -21.7450 C   0  0  0  0  0  0  0  0  0  0  0  0
  -20.8780   15.8800  -20.9670 C   0  0  0  0  0  0  0  0  0  0  0  0
  -19.3390   13.9560  -21.2600 C   0  0  0  0  0  0  0  0  0  0  0  0
  -20.6050   14.7590  -23.3050 C   0  0  0  0  0  0  0  0  0  0  0  0
  -21.1920   15.8910  -23.8850 C   0  0  0  0  0  0  0  0  0  0  0  0
  -21.1490   16.0700  -25.2740 C   0  0  0  0  0  0  0  0  0  0  0  0
  -20.5050   15.1180  -26.0700 C   0  0  0  0  0  0  0  0  0  0  0  0
  -20.4810   15.3390  -27.5350 N   0  0  0  0  0  0  0  0  0  0  0  0
  -20.2420   14.2670  -28.5100 C   0  0  0  0  0  0  0  0  0  0  0  0
  -19.1790   14.2320  -29.0240 O   0  0  0  0  0  0  0  0  0  0  0  0
  -21.3290   13.2260  -28.8610 C   0  0  0  0  0  0  0  0  0  0  0  0
  -22.4690   12.8950  -28.1540 C   0  0  0  0  0  0  0  0  0  0  0  0
  -23.1270   11.9700  -28.8420 N   0  0  0  0  0  0  0  0  0  0  0  0
  -22.4280   11.7210  -29.9470 C   0  0  0  0  0  0  0  0  0  0  0  0
  -21.3270   12.5000  -29.9590 N   0  0  0  0  0  0  0  0  0  0  0  0
  -20.8670   16.6400  -27.9950 C   0  0  0  0  0  0  0  0  0  0  0  0
  -19.5750   17.4840  -28.2020 C   0  0  0  0  0  0  0  0  0  0  0  0
  -18.6280   17.0460  -28.8040 O   0  0  0  0  0  0  0  0  0  0  0  0
  -19.5830   18.8590  -27.6720 N   0  0  0  0  0  0  0  0  0  0  0  0
  -18.4670   19.7630  -27.8030 C   0  0  0  0  0  0  0  0  0  0  0  0
  -19.0260   21.0680  -28.3630 C   0  0  0  0  0  0  0  0  0  0  0  0
  -17.9590   22.1570  -28.4460 C   0  0  0  0  0  0  0  0  0  0  0  0
  -17.4120   22.4320  -27.0760 C   0  0  0  0  0  0  0  0  0  0  0  0
  -16.9180   21.1920  -26.3620 C   0  0  0  0  0  0  0  0  0  0  0  0
  -17.8800   19.9940  -26.3990 C   0  0  0  0  0  0  0  0  0  0  0  0
  -21.5290   16.7520  -29.3360 C   0  0  0  0  0  0  0  0  0  0  0  0
  -22.6670   16.0560  -29.5430 C   0  0  0  0  0  0  0  0  0  0  0  0
  -23.3090   16.1790  -30.7490 C   0  0  0  0  0  0  0  0  0  0  0  0
  -22.7840   17.0090  -31.7210 C   0  0  0  0  0  0  0  0  0  0  0  0
  -21.6560   17.7000  -31.4930 N   0  0  0  0  0  0  0  0  0  0  0  0
  -21.0140   17.5630  -30.3100 C   0  0  0  0  0  0  0  0  0  0  0  0
  -19.9280   13.9960  -25.5070 C   0  0  0  0  0  0  0  0  0  0  0  0
  -19.9710   13.8160  -24.1130 C   0  0  0  0  0  0  0  0  0  0  0  0
  -21.9264   13.5286  -20.3386 H   0  0  0  0  0  0  0  0  0  0  0  0
  -22.7420   14.0229  -21.8608 H   0  0  0  0  0  0  0  0  0  0  0  0
  -21.6086   12.6294  -21.8608 H   0  0  0  0  0  0  0  0  0  0  0  0
  -20.8429   15.6771  -19.8864 H   0  0  0  0  0  0  0  0  0  0  0  0
  -20.0914   16.6025  -21.2301 H   0  0  0  0  0  0  0  0  0  0  0  0
  -21.8614   16.2967  -21.2301 H   0  0  0  0  0  0  0  0  0  0  0  0
  -19.3226   13.9484  -20.1601 H   0  0  0  0  0  0  0  0  0  0  0  0
  -19.2530   12.9255  -21.6351 H   0  0  0  0  0  0  0  0  0  0  0  0
  -18.4957   14.5544  -21.6351 H   0  0  0  0  0  0  0  0  0  0  0  0
  -21.6871   16.6400  -23.2495 H   0  0  0  0  0  0  0  0  0  0  0  0
  -21.6180   16.9521  -25.7343 H   0  0  0  0  0  0  0  0  0  0  0  0
  -22.7776   13.3234  -27.1890 H   0  0  0  0  0  0  0  0  0  0  0  0
  -24.0159   11.5261  -28.5704 H   0  0  0  0  0  0  0  0  0  0  0  0
  -22.7042   10.9955  -30.7263 H   0  0  0  0  0  0  0  0  0  0  0  0
  -21.5848   16.9578  -27.2244 H   0  0  0  0  0  0  0  0  0  0  0  0
  -20.2870   19.1340  -27.2650 H   0  0  0  0  0  0  0  0  0  0  0  0
  -17.6795   19.3704  -28.4631 H   0  0  0  0  0  0  0  0  0  0  0  0
  -19.4220   20.8809  -29.3720 H   0  0  0  0  0  0  0  0  0  0  0  0
  -19.8175   21.4182  -27.6841 H   0  0  0  0  0  0  0  0  0  0  0  0
  -17.1444   21.8218  -29.1048 H   0  0  0  0  0  0  0  0  0  0  0  0
  -18.4064   23.0763  -28.8518 H   0  0  0  0  0  0  0  0  0  0  0  0
  -16.5725   23.1364  -27.1714 H   0  0  0  0  0  0  0  0  0  0  0  0
  -18.2365   22.8438  -26.4755 H   0  0  0  0  0  0  0  0  0  0  0  0
  -15.9711   20.8837  -26.8293 H   0  0  0  0  0  0  0  0  0  0  0  0
  -16.8127   21.4689  -25.3026 H   0  0  0  0  0  0  0  0  0  0  0  0
  -17.3330   19.0908  -26.0907 H   0  0  0  0  0  0  0  0  0  0  0  0
  -18.7144   20.2096  -25.7154 H   0  0  0  0  0  0  0  0  0  0  0  0
  -23.0727   15.4012  -28.7577 H   0  0  0  0  0  0  0  0  0  0  0  0
  -24.2366   15.6200  -30.9412 H   0  0  0  0  0  0  0  0  0  0  0  0
  -23.2950   17.1044  -32.6904 H   0  0  0  0  0  0  0  0  0  0  0  0
  -20.0742   18.1058  -30.1306 H   0  0  0  0  0  0  0  0  0  0  0  0
  -19.4373   13.2471  -26.1461 H   0  0  0  0  0  0  0  0  0  0  0  0
  -19.5036   12.9296  -23.6592 H   0  0  0  0  0  0  0  0  0  0  0  0
  1  2  1  0
  2  3  1  0
  2  4  1  0
  2  5  1  0
  5  6  2  0
  6  7  1  0
  7  8  2  0
  8  9  1  0
  9 10  1  0
 10 11  2  0
 10 12  1  0
 12 13  2  0
 13 14  1  0
 14 15  1  0
 15 16  2  0
  9 17  1  0
 17 18  1  0
 18 19  2  0
 18 20  1  0
 20 21  1  0
 21 22  1  0
 22 23  1  0
 23 24  1  0
 24 25  1  0
 25 26  1  0
 17 27  1  0
 27 28  2  0
 28 29  1  0
 29 30  2  0
 30 31  1  0
 31 32  2  0
  8 33  1  0
 33 34  2  0
 34  5  1  0
 16 12  1  0
 26 21  1  0
 32 27  1  0
  1 35  1  0
  1 36  1  0
  1 37  1  0
  3 38  1  0
  3 39  1  0
  3 40  1  0
  4 41  1  0
  4 42  1  0
  4 43  1  0
  6 44  1  0
  7 45  1  0
 13 46  1  0
 14 47  1  0
 15 48  1  0
 17 49  1  0
 20 50  1  0
 21 51  1  0
 22 52  1  0
 22 53  1  0
 23 54  1  0
 23 55  1  0
 24 56  1  0
 24 57  1  0
 25 58  1  0
 25 59  1  0
 26 60  1  0
 26 61  1  0
 28 62  1  0
 29 63  1  0
 30 64  1  0
 32 65  1  0
 33 66  1  0
 34 67  1  0
M  END
>  <meeko>  (3) 
{"free_energy": -9.2, "intermolecular_energy": -11.586, "internal_energy": -2.475}

$$$$

     RDKit          3D

 67 70  0  0  0  0  0  0  0  0999 V2000
  -17.3610   21.9800  -28.0710 C   0  0  0  0  0  0  0  0  0  0  0  0
  -17.4890   21.2960  -26.7070 C   0  0  0  0  0  0  0  0  0  0  0  0
  -16.0680   20.9740  -26.1970 C   0  0  0  0  0  0  0  0  0  0  0  0
  -18.1390   22.2490  -25.7080 C   0  0  0  0  0  0  0  0  0  0  0  0
  -18.3930   20.0230  -26.8960 C   0  0  0  0  0  0  0  0  0  0  0  0
  -18.2160   19.2030  -28.0170 C   0  0  0  0  0  0  0  0  0  0  0  0
  -19.0160   18.0650  -28.1880 C   0  0  0  0  0  0  0  0  0  0  0  0
  -19.9780   17.7510  -27.2230 C   0  0  0  0  0  0  0  0  0  0  0  0
  -20.8060   16.5410  -27.4380 N   0  0  0  0  0  0  0  0  0  0  0  0
  -22.2370   16.5890  -27.7640 C   0  0  0  0  0  0  0  0  0  0  0  0
  -22.9970   16.6270  -26.8600 O   0  0  0  0  0  0  0  0  0  0  0  0
  -22.7430   16.5870  -29.2260 C   0  0  0  0  0  0  0  0  0  0  0  0
  -22.8590   17.6510  -30.1010 C   0  0  0  0  0  0  0  0  0  0  0  0
  -23.3090   17.1830  -31.2590 N   0  0  0  0  0  0  0  0  0  0  0  0
  -23.4740   15.8700  -31.1230 C   0  0  0  0  0  0  0  0  0  0  0  0
  -23.1180   15.5060  -29.8740 N   0  0  0  0  0  0  0  0  0  0  0  0
  -20.1150   15.2870  -27.4750 C   0  0  0  0  0  0  0  0  0  0  0  0
  -20.0070   14.7490  -26.0180 C   0  0  0  0  0  0  0  0  0  0  0  0
  -19.7530   13.5940  -25.7910 O   0  0  0  0  0  0  0  0  0  0  0  0
  -20.1780   15.7280  -24.9310 N   0  0  0  0  0  0  0  0  0  0  0  0
  -20.0890   15.3820  -23.5340 C   0  0  0  0  0  0  0  0  0  0  0  0
  -21.1960   14.3670  -23.2640 C   0  0  0  0  0  0  0  0  0  0  0  0
  -21.1420   13.8300  -21.8360 C   0  0  0  0  0  0  0  0  0  0  0  0
  -19.8220   13.1560  -21.6000 C   0  0  0  0  0  0  0  0  0  0  0  0
  -18.6300   14.0280  -21.9350 C   0  0  0  0  0  0  0  0  0  0  0  0
  -18.7100   14.7430  -23.2930 C   0  0  0  0  0  0  0  0  0  0  0  0
  -20.7680   14.1370  -28.1830 C   0  0  0  0  0  0  0  0  0  0  0  0
  -21.9180   13.6470  -27.6740 C   0  0  0  0  0  0  0  0  0  0  0  0
  -22.5510   12.6230  -28.3320 C   0  0  0  0  0  0  0  0  0  0  0  0
  -22.0050   12.1180  -29.4970 C   0  0  0  0  0  0  0  0  0  0  0  0
  -20.8640   12.6250  -29.9920 N   0  0  0  0  0  0  0  0  0  0  0  0
  -20.2320   13.6210  -29.3320 C   0  0  0  0  0  0  0  0  0  0  0  0
  -20.1630   18.5560  -26.1160 C   0  0  0  0  0  0  0  0  0  0  0  0
  -19.3610   19.6990  -25.9460 C   0  0  0  0  0  0  0  0  0  0  0  0
  -17.1604   23.0518  -27.9263 H   0  0  0  0  0  0  0  0  0  0  0  0
  -16.5325   21.5246  -28.6333 H   0  0  0  0  0  0  0  0  0  0  0  0
  -18.2981   21.8550  -28.6333 H   0  0  0  0  0  0  0  0  0  0  0  0
  -16.0646   20.9732  -25.0970 H   0  0  0  0  0  0  0  0  0  0  0  0
  -15.7619   19.9837  -26.5653 H   0  0  0  0  0  0  0  0  0  0  0  0
  -15.3649   21.7356  -26.5653 H   0  0  0  0  0  0  0  0  0  0  0  0
  -17.9126   21.9171  -24.6840 H   0  0  0  0  0  0  0  0  0  0  0  0
  -17.7445   23.2645  -25.8599 H   0  0  0  0  0  0  0  0  0  0  0  0
  -19.2284   22.2524  -25.8599 H   0  0  0  0  0  0  0  0  0  0  0  0
  -17.4482   19.4522  -28.7643 H   0  0  0  0  0  0  0  0  0  0  0  0
  -18.8883   17.4247  -29.0733 H   0  0  0  0  0  0  0  0  0  0  0  0
  -22.6203   18.7012  -29.8770 H   0  0  0  0  0  0  0  0  0  0  0  0
  -23.4962   17.7356  -32.1078 H   0  0  0  0  0  0  0  0  0  0  0  0
  -23.8422   15.1894  -31.9048 H   0  0  0  0  0  0  0  0  0  0  0  0
  -19.1889   15.5453  -28.0095 H   0  0  0  0  0  0  0  0  0  0  0  0
  -20.3400   16.5460  -25.1400 H   0  0  0  0  0  0  0  0  0  0  0  0
  -20.2022   16.2549  -22.8742 H   0  0  0  0  0  0  0  0  0  0  0  0
  -22.1700   14.8523  -23.4246 H   0  0  0  0  0  0  0  0  0  0  0  0
  -21.0561   13.5199  -23.9516 H   0  0  0  0  0  0  0  0  0  0  0  0
  -21.2594   14.6629  -21.1272 H   0  0  0  0  0  0  0  0  0  0  0  0
  -21.9543   13.1031  -21.6886 H   0  0  0  0  0  0  0  0  0  0  0  0
  -19.7598   12.8741  -20.5385 H   0  0  0  0  0  0  0  0  0  0  0  0
  -19.7812   12.2821  -22.2668 H   0  0  0  0  0  0  0  0  0  0  0  0
  -18.5363   14.7939  -21.1510 H   0  0  0  0  0  0  0  0  0  0  0  0
  -17.7625   13.3541  -21.9928 H   0  0  0  0  0  0  0  0  0  0  0  0
  -17.9440   15.5318  -23.3235 H   0  0  0  0  0  0  0  0  0  0  0  0
  -18.5438   13.9924  -24.0798 H   0  0  0  0  0  0  0  0  0  0  0  0
  -22.3407   14.0618  -26.7470 H   0  0  0  0  0  0  0  0  0  0  0  0
  -23.4881   12.2061  -27.9345 H   0  0  0  0  0  0  0  0  0  0  0  0
  -22.5091   11.2940  -30.0232 H   0  0  0  0  0  0  0  0  0  0  0  0
  -19.2826   14.0187  -29.7200 H   0  0  0  0  0  0  0  0  0  0  0  0
  -20.9330   18.3047  -25.3717 H   0  0  0  0  0  0  0  0  0  0  0  0
  -19.4977   20.3387  -25.0617 H   0  0  0  0  0  0  0  0  0  0  0  0
  1  2  1  0
  2  3  1  0
  2  4  1  0
  2  5  1  0
  5  6  2  0
  6  7  1  0
  7  8  2  0
  8  9  1  0
  9 10  1  0
 10 11  2  0
 10 12  1  0
 12 13  2  0
 13 14  1  0
 14 15  1  0
 15 16  2  0
  9 17  1  0
 17 18  1  0
 18 19  2  0
 18 20  1  0
 20 21  1  0
 21 22  1  0
 22 23  1  0
 23 24  1  0
 24 25  1  0
 25 26  1  0
 17 27  1  0
 27 28  2  0
 28 29  1  0
 29 30  2  0
 30 31  1  0
 31 32  2  0
  8 33  1  0
 33 34  2  0
 34  5  1  0
 16 12  1  0
 26 21  1  0
 32 27  1  0
  1 35  1  0
  1 36  1  0
  1 37  1  0
  3 38  1  0
  3 39  1  0
  3 40  1  0
  4 41  1  0
  4 42  1  0
  4 43  1  0
  6 44  1  0
  7 45  1  0
 13 46  1  0
 14 47  1  0
 15 48  1  0
 17 49  1  0
 20 50  1  0
 21 51  1  0
 22 52  1  0
 22 53  1  0
 23 54  1  0
 23 55  1  0
 24 56  1  0
 24 57  1  0
 25 58  1  0
 25 59  1  0
 26 60  1  0
 26 61  1  0
 28 62  1  0
 29 63  1  0
 30 64  1  0
 32 65  1  0
 33 66  1  0
 34 67  1  0
M  END
>  <meeko>  (4) 
{"free_energy": -9.099, "intermolecular_energy": -11.485, "internal_energy": -2.707}

$$$$

     RDKit          3D

 67 70  0  0  0  0  0  0  0  0999 V2000
  -16.3780   20.6350  -27.4600 C   0  0  0  0  0  0  0  0  0  0  0  0
  -17.8060   21.0870  -27.1370 C   0  0  0  0  0  0  0  0  0  0  0  0
  -17.7670   21.9020  -25.8270 C   0  0  0  0  0  0  0  0  0  0  0  0
  -18.3220   22.0040  -28.2430 C   0  0  0  0  0  0  0  0  0  0  0  0
  -18.7050   19.7990  -27.0500 C   0  0  0  0  0  0  0  0  0  0  0  0
  -18.6390   18.8340  -28.0630 C   0  0  0  0  0  0  0  0  0  0  0  0
  -19.4340   17.6830  -27.9880 C   0  0  0  0  0  0  0  0  0  0  0  0
  -20.2790   17.5020  -26.8890 C   0  0  0  0  0  0  0  0  0  0  0  0
  -21.1070   16.2740  -26.8440 N   0  0  0  0  0  0  0  0  0  0  0  0
  -22.4860   16.2460  -26.3390 C   0  0  0  0  0  0  0  0  0  0  0  0
  -22.8050   15.3100  -25.6930 O   0  0  0  0  0  0  0  0  0  0  0  0
  -23.4880   17.3860  -26.6360 C   0  0  0  0  0  0  0  0  0  0  0  0
  -24.4800   17.8970  -25.8220 C   0  0  0  0  0  0  0  0  0  0  0  0
  -25.0790   18.8860  -26.4750 N   0  0  0  0  0  0  0  0  0  0  0  0
  -24.4870   18.9970  -27.6610 C   0  0  0  0  0  0  0  0  0  0  0  0
  -23.5050   18.0780  -27.7540 N   0  0  0  0  0  0  0  0  0  0  0  0
  -20.5620   15.1080  -27.4750 C   0  0  0  0  0  0  0  0  0  0  0  0
  -20.0970   14.1270  -26.3590 C   0  0  0  0  0  0  0  0  0  0  0  0
  -19.4870   13.1220  -26.6200 O   0  0  0  0  0  0  0  0  0  0  0  0
  -20.3920   14.5090  -24.9680 N   0  0  0  0  0  0  0  0  0  0  0  0
  -20.0090   13.7100  -23.8290 C   0  0  0  0  0  0  0  0  0  0  0  0
  -18.7110   14.3080  -23.2940 C   0  0  0  0  0  0  0  0  0  0  0  0
  -18.2520   13.6190  -22.0110 C   0  0  0  0  0  0  0  0  0  0  0  0
  -19.3070   13.7680  -20.9540 C   0  0  0  0  0  0  0  0  0  0  0  0
  -20.6780   13.3060  -21.3990 C   0  0  0  0  0  0  0  0  0  0  0  0
  -21.1240   13.8260  -22.7750 C   0  0  0  0  0  0  0  0  0  0  0  0
  -21.4810   14.2440  -28.2860 C   0  0  0  0  0  0  0  0  0  0  0  0
  -21.5330   14.4470  -29.6190 C   0  0  0  0  0  0  0  0  0  0  0  0
  -22.3370   13.6380  -30.3820 C   0  0  0  0  0  0  0  0  0  0  0  0
  -23.0700   12.6360  -29.7750 C   0  0  0  0  0  0  0  0  0  0  0  0
  -22.9980   12.4440  -28.4480 N   0  0  0  0  0  0  0  0  0  0  0  0
  -22.2200   13.2550  -27.6960 C   0  0  0  0  0  0  0  0  0  0  0  0
  -20.3560   18.4520  -25.8880 C   0  0  0  0  0  0  0  0  0  0  0  0
  -19.5580   19.6070  -25.9640 C   0  0  0  0  0  0  0  0  0  0  0  0
  -15.8279   20.4609  -26.5235 H   0  0  0  0  0  0  0  0  0  0  0  0
  -16.4115   19.7035  -28.0442 H   0  0  0  0  0  0  0  0  0  0  0  0
  -15.8695   21.4161  -28.0442 H   0  0  0  0  0  0  0  0  0  0  0  0
  -17.7998   21.2163  -24.9675 H   0  0  0  0  0  0  0  0  0  0  0  0
  -16.8396   22.4923  -25.7899 H   0  0  0  0  0  0  0  0  0  0  0  0
  -18.6338   22.5782  -25.7899 H   0  0  0  0  0  0  0  0  0  0  0  0
  -18.8144   22.8791  -27.7938 H   0  0  0  0  0  0  0  0  0  0  0  0
  -17.4790   22.3373  -28.8661 H   0  0  0  0  0  0  0  0  0  0  0  0
  -19.0444   21.4564  -28.8661 H   0  0  0  0  0  0  0  0  0  0  0  0
  -17.9625   18.9800  -28.9180 H   0  0  0  0  0  0  0  0  0  0  0  0
  -19.3937   16.9280  -28.7870 H   0  0  0  0  0  0  0  0  0  0  0  0
  -24.7301   17.5461  -24.8099 H   0  0  0  0  0  0  0  0  0  0  0  0
  -25.8590   19.4616  -26.1270 H   0  0  0  0  0  0  0  0  0  0  0  0
  -24.7560   19.7234  -28.4420 H   0  0  0  0  0  0  0  0  0  0  0  0
  -19.8043   15.5366  -28.1474 H   0  0  0  0  0  0  0  0  0  0  0  0
  -20.8140   15.2450  -24.8280 H   0  0  0  0  0  0  0  0  0  0  0  0
  -19.8642   12.6500  -24.0847 H   0  0  0  0  0  0  0  0  0  0  0  0
  -17.9270   14.1964  -24.0575 H   0  0  0  0  0  0  0  0  0  0  0  0
  -18.8937   15.3682  -23.0646 H   0  0  0  0  0  0  0  0  0  0  0  0
  -18.0816   12.5507  -22.2101 H   0  0  0  0  0  0  0  0  0  0  0  0
  -17.3174   14.0823  -21.6620 H   0  0  0  0  0  0  0  0  0  0  0  0
  -19.0075   13.1750  -20.0773 H   0  0  0  0  0  0  0  0  0  0  0  0
  -19.3860   14.8410  -20.7251 H   0  0  0  0  0  0  0  0  0  0  0  0
  -20.6725   12.2066  -21.4351 H   0  0  0  0  0  0  0  0  0  0  0  0
  -21.3921   13.7156  -20.6694 H   0  0  0  0  0  0  0  0  0  0  0  0
  -21.9918   13.2395  -23.1112 H   0  0  0  0  0  0  0  0  0  0  0  0
  -21.3781   14.8909  -22.6677 H   0  0  0  0  0  0  0  0  0  0  0  0
  -20.9408   15.2476  -30.0862 H   0  0  0  0  0  0  0  0  0  0  0  0
  -22.3977   13.7862  -31.4703 H   0  0  0  0  0  0  0  0  0  0  0  0
  -23.7185   11.9897  -30.3846 H   0  0  0  0  0  0  0  0  0  0  0  0
  -22.1810   13.1191  -26.6051 H   0  0  0  0  0  0  0  0  0  0  0  0
  -21.0375   18.3053  -25.0371 H   0  0  0  0  0  0  0  0  0  0  0  0
  -19.6068   20.3611  -25.1646 H   0  0  0  0  0  0  0  0  0  0  0  0
  1  2  1  0
  2  3  1  0
  2  4  1  0
  2  5  1  0
  5  6  2  0
  6  7  1  0
  7  8  2  0
  8  9  1  0
  9 10  1  0
 10 11  2  0
 10 12  1  0
 12 13  2  0
 13 14  1  0
 14 15  1  0
 15 16  2  0
  9 17  1  0
 17 18  1  0
 18 19  2  0
 18 20  1  0
 20 21  1  0
 21 22  1  0
 22 23  1  0
 23 24  1  0
 24 25  1  0
 25 26  1  0
 17 27  1  0
 27 28  2  0
 28 29  1  0
 29 30  2  0
 30 31  1  0
 31 32  2  0
  8 33  1  0
 33 34  2  0
 34  5  1  0
 16 12  1  0
 26 21  1  0
 32 27  1  0
  1 35  1  0
  1 36  1  0
  1 37  1  0
  3 38  1  0
  3 39  1  0
  3 40  1  0
  4 41  1  0
  4 42  1  0
  4 43  1  0
  6 44  1  0
  7 45  1  0
 13 46  1  0
 14 47  1  0
 15 48  1  0
 17 49  1  0
 20 50  1  0
 21 51  1  0
 22 52  1  0
 22 53  1  0
 23 54  1  0
 23 55  1  0
 24 56  1  0
 24 57  1  0
 25 58  1  0
 25 59  1  0
 26 60  1  0
 26 61  1  0
 28 62  1  0
 29 63  1  0
 30 64  1  0
 32 65  1  0
 33 66  1  0
 34 67  1  0
M  END
>  <meeko>  (5) 
{"free_energy": -9.021, "intermolecular_energy": -11.408, "internal_energy": -3.247}

$$$$

     RDKit          3D

 67 70  0  0  0  0  0  0  0  0999 V2000
  -19.4130   13.3800  -28.8350 C   0  0  0  0  0  0  0  0  0  0  0  0
  -20.7780   14.0700  -28.7370 C   0  0  0  0  0  0  0  0  0  0  0  0
  -21.6270   13.6270  -29.9480 C   0  0  0  0  0  0  0  0  0  0  0  0
  -21.4980   13.6180  -27.4700 C   0  0  0  0  0  0  0  0  0  0  0  0
  -20.5240   15.6220  -28.6810 C   0  0  0  0  0  0  0  0  0  0  0  0
  -21.5980   16.4970  -28.4800 C   0  0  0  0  0  0  0  0  0  0  0  0
  -21.3760   17.8790  -28.4250 C   0  0  0  0  0  0  0  0  0  0  0  0
  -20.0740   18.3720  -28.5570 C   0  0  0  0  0  0  0  0  0  0  0  0
  -19.8780   19.8390  -28.4960 N   0  0  0  0  0  0  0  0  0  0  0  0
  -19.9980   20.7210  -29.6640 C   0  0  0  0  0  0  0  0  0  0  0  0
  -19.7670   21.8680  -29.5020 O   0  0  0  0  0  0  0  0  0  0  0  0
  -20.4120   20.1830  -31.0540 C   0  0  0  0  0  0  0  0  0  0  0  0
  -20.1120   20.6950  -32.3020 C   0  0  0  0  0  0  0  0  0  0  0  0
  -20.6500   19.8950  -33.2150 N   0  0  0  0  0  0  0  0  0  0  0  0
  -21.2710   18.9120  -32.5680 C   0  0  0  0  0  0  0  0  0  0  0  0
  -21.1160   19.0880  -31.2400 N   0  0  0  0  0  0  0  0  0  0  0  0
  -19.7180   20.4120  -27.1920 C   0  0  0  0  0  0  0  0  0  0  0  0
  -19.4770   19.2540  -26.1800 C   0  0  0  0  0  0  0  0  0  0  0  0
  -18.3660   18.9540  -25.8220 O   0  0  0  0  0  0  0  0  0  0  0  0
  -20.6690   18.5770  -25.6430 N   0  0  0  0  0  0  0  0  0  0  0  0
  -20.6030   17.4990  -24.6860 C   0  0  0  0  0  0  0  0  0  0  0  0
  -21.9710   16.8230  -24.6960 C   0  0  0  0  0  0  0  0  0  0  0  0
  -22.0030   15.5860  -23.8010 C   0  0  0  0  0  0  0  0  0  0  0  0
  -20.9870   14.5910  -24.2810 C   0  0  0  0  0  0  0  0  0  0  0  0
  -19.5940   15.1690  -24.4190 C   0  0  0  0  0  0  0  0  0  0  0  0
  -19.5190   16.5140  -25.1590 C   0  0  0  0  0  0  0  0  0  0  0  0
  -18.5310   21.2940  -26.9440 C   0  0  0  0  0  0  0  0  0  0  0  0
  -17.4270   21.1010  -27.6960 C   0  0  0  0  0  0  0  0  0  0  0  0
  -16.3470   21.9260  -27.5130 C   0  0  0  0  0  0  0  0  0  0  0  0
  -16.4090   22.9350  -26.5700 C   0  0  0  0  0  0  0  0  0  0  0  0
  -17.5200   23.1160  -25.8370 N   0  0  0  0  0  0  0  0  0  0  0  0
  -18.5770   22.2900  -26.0070 C   0  0  0  0  0  0  0  0  0  0  0  0
  -19.0090   17.5170  -28.7620 C   0  0  0  0  0  0  0  0  0  0  0  0
  -19.2320   16.1290  -28.8170 C   0  0  0  0  0  0  0  0  0  0  0  0
  -19.0273   13.1850  -27.8235 H   0  0  0  0  0  0  0  0  0  0  0  0
  -19.5212   12.4283  -29.3759 H   0  0  0  0  0  0  0  0  0  0  0  0
  -18.7108   14.0314  -29.3759 H   0  0  0  0  0  0  0  0  0  0  0  0
  -22.5498   13.1455  -29.5923 H   0  0  0  0  0  0  0  0  0  0  0  0
  -21.8835   14.5062  -30.5572 H   0  0  0  0  0  0  0  0  0  0  0  0
  -21.0526   12.9137  -30.5572 H   0  0  0  0  0  0  0  0  0  0  0  0
  -20.9416   13.9673  -26.5877 H   0  0  0  0  0  0  0  0  0  0  0  0
  -22.5133   14.0411  -27.4544 H   0  0  0  0  0  0  0  0  0  0  0  0
  -21.5582   12.5198  -27.4544 H   0  0  0  0  0  0  0  0  0  0  0  0
  -22.6170   16.0991  -28.3652 H   0  0  0  0  0  0  0  0  0  0  0  0
  -22.2188   18.5707  -28.2792 H   0  0  0  0  0  0  0  0  0  0  0  0
  -19.5294   21.6060  -32.5038 H   0  0  0  0  0  0  0  0  0  0  0  0
  -20.5965   20.0136  -34.2367 H   0  0  0  0  0  0  0  0  0  0  0  0
  -21.8232   18.0867  -33.0413 H   0  0  0  0  0  0  0  0  0  0  0  0
  -20.6298   21.0187  -27.0890 H   0  0  0  0  0  0  0  0  0  0  0  0
  -21.4420   18.8370  -25.9130 H   0  0  0  0  0  0  0  0  0  0  0  0
  -20.3561   17.8475  -23.6723 H   0  0  0  0  0  0  0  0  0  0  0  0
  -22.7244   17.5402  -24.3381 H   0  0  0  0  0  0  0  0  0  0  0  0
  -22.1850   16.5031  -25.7265 H   0  0  0  0  0  0  0  0  0  0  0  0
  -21.7701   15.8768  -22.7660 H   0  0  0  0  0  0  0  0  0  0  0  0
  -23.0046   15.1330  -23.8396 H   0  0  0  0  0  0  0  0  0  0  0  0
  -20.9490   13.7583  -23.5632 H   0  0  0  0  0  0  0  0  0  0  0  0
  -21.3024   14.2640  -25.2828 H   0  0  0  0  0  0  0  0  0  0  0  0
  -19.1823   15.3118  -23.4090 H   0  0  0  0  0  0  0  0  0  0  0  0
  -19.0224   14.4518  -25.0264 H   0  0  0  0  0  0  0  0  0  0  0  0
  -18.5306   16.9622  -24.9799 H   0  0  0  0  0  0  0  0  0  0  0  0
  -19.6827   16.3202  -26.2293 H   0  0  0  0  0  0  0  0  0  0  0  0
  -17.3941   20.2949  -28.4437 H   0  0  0  0  0  0  0  0  0  0  0  0
  -15.4361   21.7857  -28.1134 H   0  0  0  0  0  0  0  0  0  0  0  0
  -15.5419   23.5947  -26.4188 H   0  0  0  0  0  0  0  0  0  0  0  0
  -19.4779   22.4194  -25.3892 H   0  0  0  0  0  0  0  0  0  0  0  0
  -17.9921   17.9190  -28.8816 H   0  0  0  0  0  0  0  0  0  0  0  0
  -18.3858   15.4425  -28.9675 H   0  0  0  0  0  0  0  0  0  0  0  0
  1  2  1  0
  2  3  1  0
  2  4  1  0
  2  5  1  0
  5  6  2  0
  6  7  1  0
  7  8  2  0
  8  9  1  0
  9 10  1  0
 10 11  2  0
 10 12  1  0
 12 13  2  0
 13 14  1  0
 14 15  1  0
 15 16  2  0
  9 17  1  0
 17 18  1  0
 18 19  2  0
 18 20  1  0
 20 21  1  0
 21 22  1  0
 22 23  1  0
 23 24  1  0
 24 25  1  0
 25 26  1  0
 17 27  1  0
 27 28  2  0
 28 29  1  0
 29 30  2  0
 30 31  1  0
 31 32  2  0
  8 33  1  0
 33 34  2  0
 34  5  1  0
 16 12  1  0
 26 21  1  0
 32 27  1  0
  1 35  1  0
  1 36  1  0
  1 37  1  0
  3 38  1  0
  3 39  1  0
  3 40  1  0
  4 41  1  0
  4 42  1  0
  4 43  1  0
  6 44  1  0
  7 45  1  0
 13 46  1  0
 14 47  1  0
 15 48  1  0
 17 49  1  0
 20 50  1  0
 21 51  1  0
 22 52  1  0
 22 53  1  0
 23 54  1  0
 23 55  1  0
 24 56  1  0
 24 57  1  0
 25 58  1  0
 25 59  1  0
 26 60  1  0
 26 61  1  0
 28 62  1  0
 29 63  1  0
 30 64  1  0
 32 65  1  0
 33 66  1  0
 34 67  1  0
M  END
>  <meeko>  (6) 
{"free_energy": -8.945, "intermolecular_energy": -11.332, "internal_energy": -3.286}

$$$$

     RDKit          3D

 67 70  0  0  0  0  0  0  0  0999 V2000
  -21.2540   18.5070  -31.2810 C   0  0  0  0  0  0  0  0  0  0  0  0
  -22.2660   17.5640  -30.6220 C   0  0  0  0  0  0  0  0  0  0  0  0
  -23.6610   18.2200  -30.7090 C   0  0  0  0  0  0  0  0  0  0  0  0
  -22.3210   16.2450  -31.3890 C   0  0  0  0  0  0  0  0  0  0  0  0
  -21.7840   17.3040  -29.1480 C   0  0  0  0  0  0  0  0  0  0  0  0
  -22.6980   17.3930  -28.0900 C   0  0  0  0  0  0  0  0  0  0  0  0
  -22.2740   17.1590  -26.7760 C   0  0  0  0  0  0  0  0  0  0  0  0
  -20.9390   16.8210  -26.5340 C   0  0  0  0  0  0  0  0  0  0  0  0
  -20.5270   16.5810  -25.1310 N   0  0  0  0  0  0  0  0  0  0  0  0
  -19.9380   17.6180  -24.2730 C   0  0  0  0  0  0  0  0  0  0  0  0
  -19.0040   18.2030  -24.6980 O   0  0  0  0  0  0  0  0  0  0  0  0
  -20.5030   17.9360  -22.8700 C   0  0  0  0  0  0  0  0  0  0  0  0
  -20.1320   18.9410  -21.9970 C   0  0  0  0  0  0  0  0  0  0  0  0
  -20.9040   18.8570  -20.9200 N   0  0  0  0  0  0  0  0  0  0  0  0
  -21.7350   17.8340  -21.1030 C   0  0  0  0  0  0  0  0  0  0  0  0
  -21.4910   17.2750  -22.3060 N   0  0  0  0  0  0  0  0  0  0  0  0
  -20.8770   15.3110  -24.5660 C   0  0  0  0  0  0  0  0  0  0  0  0
  -20.7540   14.2340  -25.6830 C   0  0  0  0  0  0  0  0  0  0  0  0
  -19.8240   13.4690  -25.7190 O   0  0  0  0  0  0  0  0  0  0  0  0
  -21.8510   14.1590  -26.6630 N   0  0  0  0  0  0  0  0  0  0  0  0
  -21.8840   13.2030  -27.7420 C   0  0  0  0  0  0  0  0  0  0  0  0
  -23.1210   13.5280  -28.5750 C   0  0  0  0  0  0  0  0  0  0  0  0
  -23.2140   12.6530  -29.8230 C   0  0  0  0  0  0  0  0  0  0  0  0
  -22.0020   12.8690  -30.6820 C   0  0  0  0  0  0  0  0  0  0  0  0
  -20.6950   12.6820  -29.9410 C   0  0  0  0  0  0  0  0  0  0  0  0
  -20.6100   13.3970  -28.5840 C   0  0  0  0  0  0  0  0  0  0  0  0
  -19.9980   14.7460  -23.4900 C   0  0  0  0  0  0  0  0  0  0  0  0
  -20.5870   14.1100  -22.4560 C   0  0  0  0  0  0  0  0  0  0  0  0
  -19.7960   13.5500  -21.4850 C   0  0  0  0  0  0  0  0  0  0  0  0
  -18.4210   13.6440  -21.5840 C   0  0  0  0  0  0  0  0  0  0  0  0
  -17.8540   14.2740  -22.6260 N   0  0  0  0  0  0  0  0  0  0  0  0
  -18.6350   14.8410  -23.5720 C   0  0  0  0  0  0  0  0  0  0  0  0
  -20.0290   16.7360  -27.5700 C   0  0  0  0  0  0  0  0  0  0  0  0
  -20.4550   16.9720  -28.8900 C   0  0  0  0  0  0  0  0  0  0  0  0
  -20.6855   19.0367  -30.5024 H   0  0  0  0  0  0  0  0  0  0  0  0
  -20.5627   17.9235  -31.9068 H   0  0  0  0  0  0  0  0  0  0  0  0
  -21.7873   19.2377  -31.9068 H   0  0  0  0  0  0  0  0  0  0  0  0
  -24.0452   18.4007  -29.6942 H   0  0  0  0  0  0  0  0  0  0  0  0
  -23.5836   19.1761  -31.2474 H   0  0  0  0  0  0  0  0  0  0  0  0
  -24.3480   17.5506  -31.2474 H   0  0  0  0  0  0  0  0  0  0  0  0
  -22.3559   15.4077  -30.6765 H   0  0  0  0  0  0  0  0  0  0  0  0
  -23.2207   16.2259  -32.0216 H   0  0  0  0  0  0  0  0  0  0  0  0
  -21.4260   16.1511  -32.0216 H   0  0  0  0  0  0  0  0  0  0  0  0
  -23.7492   17.6468  -28.2915 H   0  0  0  0  0  0  0  0  0  0  0  0
  -22.9855   17.2404  -25.9410 H   0  0  0  0  0  0  0  0  0  0  0  0
  -19.3360   19.6814  -22.1650 H   0  0  0  0  0  0  0  0  0  0  0  0
  -20.8665   19.4713  -20.0941 H   0  0  0  0  0  0  0  0  0  0  0  0
  -22.4994   17.4977  -20.3870 H   0  0  0  0  0  0  0  0  0  0  0  0
  -21.8694   15.5103  -24.1355 H   0  0  0  0  0  0  0  0  0  0  0  0
  -22.5030   14.7140  -26.5880 H   0  0  0  0  0  0  0  0  0  0  0  0
  -21.9256   12.1635  -27.3846 H   0  0  0  0  0  0  0  0  0  0  0  0
  -24.0175   13.3648  -27.9588 H   0  0  0  0  0  0  0  0  0  0  0  0
  -23.0476   14.5766  -28.8990 H   0  0  0  0  0  0  0  0  0  0  0  0
  -23.2677   11.5954  -29.5252 H   0  0  0  0  0  0  0  0  0  0  0  0
  -24.1166   12.9223  -30.3911 H   0  0  0  0  0  0  0  0  0  0  0  0
  -22.0346   12.1530  -31.5164 H   0  0  0  0  0  0  0  0  0  0  0  0
  -22.0318   13.9132  -31.0266 H   0  0  0  0  0  0  0  0  0  0  0  0
  -20.5514   11.6051  -29.7689 H   0  0  0  0  0  0  0  0  0  0  0  0
  -19.9156   13.1308  -30.5743 H   0  0  0  0  0  0  0  0  0  0  0  0
  -19.7519   12.9952  -28.0253 H   0  0  0  0  0  0  0  0  0  0  0  0
  -20.4943   14.4737  -28.7770 H   0  0  0  0  0  0  0  0  0  0  0  0
  -21.6830   14.0417  -22.3926 H   0  0  0  0  0  0  0  0  0  0  0  0
  -20.2542   13.0286  -20.6317 H   0  0  0  0  0  0  0  0  0  0  0  0
  -17.7859   13.1995  -20.8036 H   0  0  0  0  0  0  0  0  0  0  0  0
  -18.1733   15.3812  -24.4116 H   0  0  0  0  0  0  0  0  0  0  0  0
  -18.9779   16.4854  -27.3642 H   0  0  0  0  0  0  0  0  0  0  0  0
  -19.7377   16.8943  -29.7203 H   0  0  0  0  0  0  0  0  0  0  0  0
  1  2  1  0
  2  3  1  0
  2  4  1  0
  2  5  1  0
  5  6  2  0
  6  7  1  0
  7  8  2  0
  8  9  1  0
  9 10  1  0
 10 11  2  0
 10 12  1  0
 12 13  2  0
 13 14  1  0
 14 15  1  0
 15 16  2  0
  9 17  1  0
 17 18  1  0
 18 19  2  0
 18 20  1  0
 20 21  1  0
 21 22  1  0
 22 23  1  0
 23 24  1  0
 24 25  1  0
 25 26  1  0
 17 27  1  0
 27 28  2  0
 28 29  1  0
 29 30  2  0
 30 31  1  0
 31 32  2  0
  8 33  1  0
 33 34  2  0
 34  5  1  0
 16 12  1  0
 26 21  1  0
 32 27  1  0
  1 35  1  0
  1 36  1  0
  1 37  1  0
  3 38  1  0
  3 39  1  0
  3 40  1  0
  4 41  1  0
  4 42  1  0
  4 43  1  0
  6 44  1  0
  7 45  1  0
 13 46  1  0
 14 47  1  0
 15 48  1  0
 17 49  1  0
 20 50  1  0
 21 51  1  0
 22 52  1  0
 22 53  1  0
 23 54  1  0
 23 55  1  0
 24 56  1  0
 24 57  1  0
 25 58  1  0
 25 59  1  0
 26 60  1  0
 26 61  1  0
 28 62  1  0
 29 63  1  0
 30 64  1  0
 32 65  1  0
 33 66  1  0
 34 67  1  0
M  END
>  <meeko>  (7) 
{"free_energy": -8.435, "intermolecular_energy": -10.821, "internal_energy": -3.255}

$$$$

     RDKit          3D

 67 70  0  0  0  0  0  0  0  0999 V2000
  -20.0970   12.8680  -29.6880 C   0  0  0  0  0  0  0  0  0  0  0  0
  -21.4410   13.4070  -29.1880 C   0  0  0  0  0  0  0  0  0  0  0  0
  -21.8060   14.6450  -30.0360 C   0  0  0  0  0  0  0  0  0  0  0  0
  -22.5300   12.3590  -29.3970 C   0  0  0  0  0  0  0  0  0  0  0  0
  -21.2880   13.7180  -27.6540 C   0  0  0  0  0  0  0  0  0  0  0  0
  -22.3250   14.3590  -26.9660 C   0  0  0  0  0  0  0  0  0  0  0  0
  -22.1950   14.6350  -25.5980 C   0  0  0  0  0  0  0  0  0  0  0  0
  -21.0290   14.2510  -24.9280 C   0  0  0  0  0  0  0  0  0  0  0  0
  -20.9260   14.5600  -23.4830 N   0  0  0  0  0  0  0  0  0  0  0  0
  -21.1640   13.5690  -22.4260 C   0  0  0  0  0  0  0  0  0  0  0  0
  -20.5300   12.5730  -22.4660 O   0  0  0  0  0  0  0  0  0  0  0  0
  -22.2020   13.8040  -21.3040 C   0  0  0  0  0  0  0  0  0  0  0  0
  -22.5930   14.9960  -20.7250 C   0  0  0  0  0  0  0  0  0  0  0  0
  -23.5300   14.7280  -19.8230 N   0  0  0  0  0  0  0  0  0  0  0  0
  -23.7250   13.4120  -19.8290 C   0  0  0  0  0  0  0  0  0  0  0  0
  -22.9130   12.8480  -20.7450 N   0  0  0  0  0  0  0  0  0  0  0  0
  -20.4160   15.8540  -23.1370 C   0  0  0  0  0  0  0  0  0  0  0  0
  -19.6000   16.3930  -24.3480 C   0  0  0  0  0  0  0  0  0  0  0  0
  -18.4980   15.9770  -24.5990 O   0  0  0  0  0  0  0  0  0  0  0  0
  -20.2580   17.3960  -25.2030 N   0  0  0  0  0  0  0  0  0  0  0  0
  -19.6340   17.9730  -26.3680 C   0  0  0  0  0  0  0  0  0  0  0  0
  -19.7780   16.9500  -27.4910 C   0  0  0  0  0  0  0  0  0  0  0  0
  -19.2540   17.4860  -28.8220 C   0  0  0  0  0  0  0  0  0  0  0  0
  -20.0230   18.7160  -29.2080 C   0  0  0  0  0  0  0  0  0  0  0  0
  -20.0490   19.7760  -28.1280 C   0  0  0  0  0  0  0  0  0  0  0  0
  -20.3970   19.2630  -26.7220 C   0  0  0  0  0  0  0  0  0  0  0  0
  -21.3960   16.9650  -22.9030 C   0  0  0  0  0  0  0  0  0  0  0  0
  -20.9750   18.0530  -22.2250 C   0  0  0  0  0  0  0  0  0  0  0  0
  -21.8460   19.0970  -22.0390 C   0  0  0  0  0  0  0  0  0  0  0  0
  -23.1280   19.0160  -22.5480 C   0  0  0  0  0  0  0  0  0  0  0  0
  -23.5260   17.9280  -23.2270 N   0  0  0  0  0  0  0  0  0  0  0  0
  -22.6720   16.8930  -23.3930 C   0  0  0  0  0  0  0  0  0  0  0  0
  -19.9980   13.6230  -25.6000 C   0  0  0  0  0  0  0  0  0  0  0  0
  -20.1290   13.3480  -26.9730 C   0  0  0  0  0  0  0  0  0  0  0  0
  -19.4612   12.6130  -28.8274 H   0  0  0  0  0  0  0  0  0  0  0  0
  -20.2667   11.9684  -30.2978 H   0  0  0  0  0  0  0  0  0  0  0  0
  -19.5981   13.6356  -30.2978 H   0  0  0  0  0  0  0  0  0  0  0  0
  -22.0537   15.4852  -29.3706 H   0  0  0  0  0  0  0  0  0  0  0  0
  -20.9507   14.9198  -30.6707 H   0  0  0  0  0  0  0  0  0  0  0  0
  -22.6736   14.4118  -30.6707 H   0  0  0  0  0  0  0  0  0  0  0  0
  -22.8941   12.0086  -28.4199 H   0  0  0  0  0  0  0  0  0  0  0  0
  -23.3633   12.8035  -29.9609 H   0  0  0  0  0  0  0  0  0  0  0  0
  -22.1177   11.5092  -29.9609 H   0  0  0  0  0  0  0  0  0  0  0  0
  -23.2430   14.6464  -27.4996 H   0  0  0  0  0  0  0  0  0  0  0  0
  -23.0027   15.1490  -25.0563 H   0  0  0  0  0  0  0  0  0  0  0  0
  -22.1972   15.9930  -20.9687 H   0  0  0  0  0  0  0  0  0  0  0  0
  -24.0166   15.4134  -19.2278 H   0  0  0  0  0  0  0  0  0  0  0  0
  -24.4361   12.8702  -19.1881 H   0  0  0  0  0  0  0  0  0  0  0  0
  -19.8863   15.6528  -22.1941 H   0  0  0  0  0  0  0  0  0  0  0  0
  -21.0520   17.6500  -24.9960 H   0  0  0  0  0  0  0  0  0  0  0  0
  -18.5734   18.2145  -26.2042 H   0  0  0  0  0  0  0  0  0  0  0  0
  -19.2105   16.0464  -27.2236 H   0  0  0  0  0  0  0  0  0  0  0  0
  -20.8481   16.7256  -27.6119 H   0  0  0  0  0  0  0  0  0  0  0  0
  -18.1879   17.7376  -28.7210 H   0  0  0  0  0  0  0  0  0  0  0  0
  -19.3794   16.7181  -29.5996 H   0  0  0  0  0  0  0  0  0  0  0  0
  -19.5607   19.1474  -30.1081 H   0  0  0  0  0  0  0  0  0  0  0  0
  -21.0639   18.4054  -29.3814 H   0  0  0  0  0  0  0  0  0  0  0  0
  -19.0539   20.2428  -28.0842 H   0  0  0  0  0  0  0  0  0  0  0  0
  -20.8492   20.4778  -28.4057 H   0  0  0  0  0  0  0  0  0  0  0  0
  -20.1389   20.0401  -25.9875 H   0  0  0  0  0  0  0  0  0  0  0  0
  -21.4729   19.0351  -26.7024 H   0  0  0  0  0  0  0  0  0  0  0  0
  -19.9504   18.1023  -21.8279 H   0  0  0  0  0  0  0  0  0  0  0  0
  -21.5254   19.9933  -21.4878 H   0  0  0  0  0  0  0  0  0  0  0  0
  -23.8287   19.8501  -22.3957 H   0  0  0  0  0  0  0  0  0  0  0  0
  -23.0042   15.9889  -23.9243 H   0  0  0  0  0  0  0  0  0  0  0  0
  -19.0800   13.3397  -25.0642 H   0  0  0  0  0  0  0  0  0  0  0  0
  -19.3151   12.8398  -27.5109 H   0  0  0  0  0  0  0  0  0  0  0  0
  1  2  1  0
  2  3  1  0
  2  4  1  0
  2  5  1  0
  5  6  2  0
  6  7  1  0
  7  8  2  0
  8  9  1  0
  9 10  1  0
 10 11  2  0
 10 12  1  0
 12 13  2  0
 13 14  1  0
 14 15  1  0
 15 16  2  0
  9 17  1  0
 17 18  1  0
 18 19  2  0
 18 20  1  0
 20 21  1  0
 21 22  1  0
 22 23  1  0
 23 24  1  0
 24 25  1  0
 25 26  1  0
 17 27  1  0
 27 28  2  0
 28 29  1  0
 29 30  2  0
 30 31  1  0
 31 32  2  0
  8 33  1  0
 33 34  2  0
 34  5  1  0
 16 12  1  0
 26 21  1  0
 32 27  1  0
  1 35  1  0
  1 36  1  0
  1 37  1  0
  3 38  1  0
  3 39  1  0
  3 40  1  0
  4 41  1  0
  4 42  1  0
  4 43  1  0
  6 44  1  0
  7 45  1  0
 13 46  1  0
 14 47  1  0
 15 48  1  0
 17 49  1  0
 20 50  1  0
 21 51  1  0
 22 52  1  0
 22 53  1  0
 23 54  1  0
 23 55  1  0
 24 56  1  0
 24 57  1  0
 25 58  1  0
 25 59  1  0
 26 60  1  0
 26 61  1  0
 28 62  1  0
 29 63  1  0
 30 64  1  0
 32 65  1  0
 33 66  1  0
 34 67  1  0
M  END
>  <meeko>  (8) 
{"free_energy": -8.327, "intermolecular_energy": -10.713, "internal_energy": -3.299}

$$$$

     RDKit          3D

 67 70  0  0  0  0  0  0  0  0999 V2000
  -19.8790   13.7250  -20.9490 C   0  0  0  0  0  0  0  0  0  0  0  0
  -21.0630   14.4500  -21.5960 C   0  0  0  0  0  0  0  0  0  0  0  0
  -22.3360   13.6180  -21.3330 C   0  0  0  0  0  0  0  0  0  0  0  0
  -21.2530   15.8170  -20.9440 C   0  0  0  0  0  0  0  0  0  0  0  0
  -20.7340   14.6290  -23.1240 C   0  0  0  0  0  0  0  0  0  0  0  0
  -19.4100   14.8360  -23.5310 C   0  0  0  0  0  0  0  0  0  0  0  0
  -19.1110   14.9920  -24.8910 C   0  0  0  0  0  0  0  0  0  0  0  0
  -20.1420   14.9240  -25.8330 C   0  0  0  0  0  0  0  0  0  0  0  0
  -19.7880   15.0950  -27.2620 N   0  0  0  0  0  0  0  0  0  0  0  0
  -19.7570   13.9860  -28.2250 C   0  0  0  0  0  0  0  0  0  0  0  0
  -18.6990   13.6620  -28.6410 O   0  0  0  0  0  0  0  0  0  0  0  0
  -21.0460   13.2680  -28.6870 C   0  0  0  0  0  0  0  0  0  0  0  0
  -21.2500   12.5030  -29.8190 C   0  0  0  0  0  0  0  0  0  0  0  0
  -22.5010   12.0590  -29.7960 N   0  0  0  0  0  0  0  0  0  0  0  0
  -23.0700   12.5270  -28.6890 C   0  0  0  0  0  0  0  0  0  0  0  0
  -22.1710   13.2630  -28.0050 N   0  0  0  0  0  0  0  0  0  0  0  0
  -19.6280   16.4400  -27.7290 C   0  0  0  0  0  0  0  0  0  0  0  0
  -20.6410   16.6760  -28.8870 C   0  0  0  0  0  0  0  0  0  0  0  0
  -20.3740   17.3880  -29.8210 O   0  0  0  0  0  0  0  0  0  0  0  0
  -21.9200   15.9490  -28.8140 N   0  0  0  0  0  0  0  0  0  0  0  0
  -22.9480   16.0530  -29.8200 C   0  0  0  0  0  0  0  0  0  0  0  0
  -23.2650   17.5390  -29.9660 C   0  0  0  0  0  0  0  0  0  0  0  0
  -24.2680   17.8000  -31.0880 C   0  0  0  0  0  0  0  0  0  0  0  0
  -23.7040   17.3110  -32.3910 C   0  0  0  0  0  0  0  0  0  0  0  0
  -23.2480   15.8680  -32.3480 C   0  0  0  0  0  0  0  0  0  0  0  0
  -22.3780   15.4980  -31.1370 C   0  0  0  0  0  0  0  0  0  0  0  0
  -19.9620   17.5620  -26.7900 C   0  0  0  0  0  0  0  0  0  0  0  0
  -21.2430   17.9830  -26.7340 C   0  0  0  0  0  0  0  0  0  0  0  0
  -21.5750   18.9790  -25.8500 C   0  0  0  0  0  0  0  0  0  0  0  0
  -20.5990   19.5260  -25.0380 C   0  0  0  0  0  0  0  0  0  0  0  0
  -19.3320   19.0860  -25.1040 N   0  0  0  0  0  0  0  0  0  0  0  0
  -19.0030   18.1180  -25.9880 C   0  0  0  0  0  0  0  0  0  0  0  0
  -21.4510   14.7260  -25.4400 C   0  0  0  0  0  0  0  0  0  0  0  0
  -21.7510   14.5700  -24.0750 C   0  0  0  0  0  0  0  0  0  0  0  0
  -19.9692   13.7802  -19.8541 H   0  0  0  0  0  0  0  0  0  0  0  0
  -19.8778   12.6711  -21.2641 H   0  0  0  0  0  0  0  0  0  0  0  0
  -18.9397   14.2030  -21.2641 H   0  0  0  0  0  0  0  0  0  0  0  0
  -22.4905   13.5170  -20.2486 H   0  0  0  0  0  0  0  0  0  0  0  0
  -23.2038   14.1238  -21.7815 H   0  0  0  0  0  0  0  0  0  0  0  0
  -22.2210   12.6202  -21.7815 H   0  0  0  0  0  0  0  0  0  0  0  0
  -21.2377   15.7066  -19.8497 H   0  0  0  0  0  0  0  0  0  0  0  0
  -20.4395   16.4884  -21.2562 H   0  0  0  0  0  0  0  0  0  0  0  0
  -22.2187   16.2411  -21.2562 H   0  0  0  0  0  0  0  0  0  0  0  0
  -18.6046   14.8761  -22.7828 H   0  0  0  0  0  0  0  0  0  0  0  0
  -18.0743   15.1664  -25.2147 H   0  0  0  0  0  0  0  0  0  0  0  0
  -20.5059   12.2976  -30.6026 H   0  0  0  0  0  0  0  0  0  0  0  0
  -22.9487   11.4615  -30.5056 H   0  0  0  0  0  0  0  0  0  0  0  0
  -24.1096   12.3428  -28.3802 H   0  0  0  0  0  0  0  0  0  0  0  0
  -18.5525   16.4831  -27.9558 H   0  0  0  0  0  0  0  0  0  0  0  0
  -22.0600   15.4370  -28.1370 H   0  0  0  0  0  0  0  0  0  0  0  0
  -23.8567   15.4919  -29.5564 H   0  0  0  0  0  0  0  0  0  0  0  0
  -23.6868   17.9073  -29.0192 H   0  0  0  0  0  0  0  0  0  0  0  0
  -22.3309   18.0639  -30.2149 H   0  0  0  0  0  0  0  0  0  0  0  0
  -25.2059   17.2673  -30.8720 H   0  0  0  0  0  0  0  0  0  0  0  0
  -24.4658   18.8798  -31.1576 H   0  0  0  0  0  0  0  0  0  0  0  0
  -24.4800   17.4080  -33.1646 H   0  0  0  0  0  0  0  0  0  0  0  0
  -22.8174   17.9241  -32.6102 H   0  0  0  0  0  0  0  0  0  0  0  0
  -24.1424   15.2277  -32.3340 H   0  0  0  0  0  0  0  0  0  0  0  0
  -22.6175   15.7181  -33.2368 H   0  0  0  0  0  0  0  0  0  0  0  0
  -22.3204   14.4019  -31.0639 H   0  0  0  0  0  0  0  0  0  0  0  0
  -21.3831   15.9422  -31.2879 H   0  0  0  0  0  0  0  0  0  0  0  0
  -22.0079   17.5355  -27.3857 H   0  0  0  0  0  0  0  0  0  0  0  0
  -22.6122   19.3401  -25.7879 H   0  0  0  0  0  0  0  0  0  0  0  0
  -20.8623   20.3278  -24.3324 H   0  0  0  0  0  0  0  0  0  0  0  0
  -17.9603   17.7759  -26.0630 H   0  0  0  0  0  0  0  0  0  0  0  0
  -22.2545   14.6905  -26.1905 H   0  0  0  0  0  0  0  0  0  0  0  0
  -22.7905   14.4011  -23.7573 H   0  0  0  0  0  0  0  0  0  0  0  0
  1  2  1  0
  2  3  1  0
  2  4  1  0
  2  5  1  0
  5  6  2  0
  6  7  1  0
  7  8  2  0
  8  9  1  0
  9 10  1  0
 10 11  2  0
 10 12  1  0
 12 13  2  0
 13 14  1  0
 14 15  1  0
 15 16  2  0
  9 17  1  0
 17 18  1  0
 18 19  2  0
 18 20  1  0
 20 21  1  0
 21 22  1  0
 22 23  1  0
 23 24  1  0
 24 25  1  0
 25 26  1  0
 17 27  1  0
 27 28  2  0
 28 29  1  0
 29 30  2  0
 30 31  1  0
 31 32  2  0
  8 33  1  0
 33 34  2  0
 34  5  1  0
 16 12  1  0
 26 21  1  0
 32 27  1  0
  1 35  1  0
  1 36  1  0
  1 37  1  0
  3 38  1  0
  3 39  1  0
  3 40  1  0
  4 41  1  0
  4 42  1  0
  4 43  1  0
  6 44  1  0
  7 45  1  0
 13 46  1  0
 14 47  1  0
 15 48  1  0
 17 49  1  0
 20 50  1  0
 21 51  1  0
 22 52  1  0
 22 53  1  0
 23 54  1  0
 23 55  1  0
 24 56  1  0
 24 57  1  0
 25 58  1  0
 25 59  1  0
 26 60  1  0
 26 61  1  0
 28 62  1  0
 29 63  1  0
 30 64  1  0
 32 65  1  0
 33 66  1  0
 34 67  1  0
M  END
>  <meeko>  (9) 
{"free_energy": -7.815, "intermolecular_energy": -10.202, "internal_energy": -3.859}

$$$$

