
     RDKit          3D

 67 70  0  0  0  0  0  0  0  0999 V2000
  -23.8950   16.7290  -33.6540 C   0  0  0  0  0  0  0  0  0  0  0  0
  -24.5080   17.1380  -32.3110 C   0  0  0  0  0  0  0  0  0  0  0  0
  -25.0470   18.5780  -32.4470 C   0  0  0  0  0  0  0  0  0  0  0  0
  -25.6870   16.2270  -31.9810 C   0  0  0  0  0  0  0  0  0  0  0  0
  -23.3920   16.9850  -31.2120 C   0  0  0  0  0  0  0  0  0  0  0  0
  -22.2520   16.2180  -31.4800 C   0  0  0  0  0  0  0  0  0  0  0  0
  -21.2530   16.0830  -30.5060 C   0  0  0  0  0  0  0  0  0  0  0  0
  -21.4000   16.7310  -29.2770 C   0  0  0  0  0  0  0  0  0  0  0  0
  -20.3250   16.5650  -28.2710 N   0  0  0  0  0  0  0  0  0  0  0  0
  -19.5220   17.6800  -27.7540 C   0  0  0  0  0  0  0  0  0  0  0  0
  -18.5980   18.0280  -28.4030 O   0  0  0  0  0  0  0  0  0  0  0  0
  -19.8580   18.3770  -26.4150 C   0  0  0  0  0  0  0  0  0  0  0  0
  -21.0650   18.9010  -25.9940 C   0  0  0  0  0  0  0  0  0  0  0  0
  -20.9000   19.3770  -24.7650 N   0  0  0  0  0  0  0  0  0  0  0  0
  -19.6330   19.1630  -24.4200 C   0  0  0  0  0  0  0  0  0  0  0  0
  -18.9970   18.5420  -25.4340 N   0  0  0  0  0  0  0  0  0  0  0  0
  -20.1930   15.2660  -27.6800 C   0  0  0  0  0  0  0  0  0  0  0  0
  -20.5270   15.3870  -26.1640 C   0  0  0  0  0  0  0  0  0  0  0  0
  -21.5660   15.8640  -25.7860 O   0  0  0  0  0  0  0  0  0  0  0  0
  -19.5390   14.8440  -25.2170 N   0  0  0  0  0  0  0  0  0  0  0  0
  -19.7180   14.8690  -23.7860 C   0  0  0  0  0  0  0  0  0  0  0  0
  -20.8570   13.9030  -23.4730 C   0  0  0  0  0  0  0  0  0  0  0  0
  -21.0770   13.7490  -21.9690 C   0  0  0  0  0  0  0  0  0  0  0  0
  -19.8270   13.2220  -21.3280 C   0  0  0  0  0  0  0  0  0  0  0  0
  -18.5920   14.0370  -21.6510 C   0  0  0  0  0  0  0  0  0  0  0  0
  -18.4100   14.3790  -23.1380 C   0  0  0  0  0  0  0  0  0  0  0  0
  -21.1350   14.1860  -28.1220 C   0  0  0  0  0  0  0  0  0  0  0  0
  -20.7710   13.4110  -29.1650 C   0  0  0  0  0  0  0  0  0  0  0  0
  -21.6020   12.3910  -29.5550 C   0  0  0  0  0  0  0  0  0  0  0  0
  -22.7860   12.1760  -28.8760 C   0  0  0  0  0  0  0  0  0  0  0  0
  -23.1270   12.9530  -27.8350 N   0  0  0  0  0  0  0  0  0  0  0  0
  -22.3160   13.9690  -27.4640 C   0  0  0  0  0  0  0  0  0  0  0  0
  -22.5240   17.4860  -29.0010 C   0  0  0  0  0  0  0  0  0  0  0  0
  -23.5270   17.6210  -29.9790 C   0  0  0  0  0  0  0  0  0  0  0  0
  -22.9920   16.1265  -33.4766 H   0  0  0  0  0  0  0  0  0  0  0  0
  -24.6249   16.1363  -34.2249 H   0  0  0  0  0  0  0  0  0  0  0  0
  -23.6280   17.6305  -34.2249 H   0  0  0  0  0  0  0  0  0  0  0  0
  -25.2071   19.0056  -31.4462 H   0  0  0  0  0  0  0  0  0  0  0  0
  -24.3179   19.1921  -32.9958 H   0  0  0  0  0  0  0  0  0  0  0  0
  -26.0002   18.5624  -32.9958 H   0  0  0  0  0  0  0  0  0  0  0  0
  -25.7928   16.1452  -30.8892 H   0  0  0  0  0  0  0  0  0  0  0  0
  -26.6082   16.6503  -32.4080 H   0  0  0  0  0  0  0  0  0  0  0  0
  -25.5099   15.2288  -32.4080 H   0  0  0  0  0  0  0  0  0  0  0  0
  -22.1402   15.7212  -32.4550 H   0  0  0  0  0  0  0  0  0  0  0  0
  -20.3608   15.4720  -30.7076 H   0  0  0  0  0  0  0  0  0  0  0  0
  -21.9990   18.9206  -26.5748 H   0  0  0  0  0  0  0  0  0  0  0  0
  -21.6212   19.8292  -24.1850 H   0  0  0  0  0  0  0  0  0  0  0  0
  -19.1769   19.4474  -23.4603 H   0  0  0  0  0  0  0  0  0  0  0  0
  -19.1721   14.9778  -27.9711 H   0  0  0  0  0  0  0  0  0  0  0  0
  -18.8190   14.4960  -25.5330 H   0  0  0  0  0  0  0  0  0  0  0  0
  -19.9537   15.8740  -23.4061 H   0  0  0  0  0  0  0  0  0  0  0  0
  -21.7820   14.2839  -23.9305 H   0  0  0  0  0  0  0  0  0  0  0  0
  -20.5893   12.9171  -23.8809 H   0  0  0  0  0  0  0  0  0  0  0  0
  -21.3268   14.7278  -21.5336 H   0  0  0  0  0  0  0  0  0  0  0  0
  -21.9031   13.0448  -21.7912 H   0  0  0  0  0  0  0  0  0  0  0  0
  -19.9686   13.2220  -20.2371 H   0  0  0  0  0  0  0  0  0  0  0  0
  -19.6605   12.2107  -21.7273 H   0  0  0  0  0  0  0  0  0  0  0  0
  -18.6491   14.9805  -21.0884 H   0  0  0  0  0  0  0  0  0  0  0  0
  -17.7303   13.4131  -21.3714 H   0  0  0  0  0  0  0  0  0  0  0  0
  -17.6513   15.1702  -23.2293 H   0  0  0  0  0  0  0  0  0  0  0  0
  -18.0972   13.4625  -23.6597 H   0  0  0  0  0  0  0  0  0  0  0  0
  -19.8239   13.5938  -29.6938 H   0  0  0  0  0  0  0  0  0  0  0  0
  -21.3269   11.7478  -30.4039 H   0  0  0  0  0  0  0  0  0  0  0  0
  -23.4550   11.3615  -29.1907 H   0  0  0  0  0  0  0  0  0  0  0  0
  -22.6062   14.6244  -26.6296 H   0  0  0  0  0  0  0  0  0  0  0  0
  -22.6341   17.9782  -28.0234 H   0  0  0  0  0  0  0  0  0  0  0  0
  -24.4192   18.2296  -29.7700 H   0  0  0  0  0  0  0  0  0  0  0  0
  1  2  1  0
  2  3  1  0
  2  4  1  0
  2  5  1  0
  5  6  2  0
  6  7  1  0
  7  8  2  0
  8  9  1  0
  9 10  1  0
 10 11  2  0
 10 12  1  0
 12 13  2  0
 13 14  1  0
 14 15  1  0
 15 16  2  0
  9 17  1  0
 17 18  1  0
 18 19  2  0
 18 20  1  0
 20 21  1  0
 21 22  1  0
 22 23  1  0
 23 24  1  0
 24 25  1  0
 25 26  1  0
 17 27  1  0
 27 28  2  0
 28 29  1  0
 29 30  2  0
 30 31  1  0
 31 32  2  0
  8 33  1  0
 33 34  2  0
 34  5  1  0
 16 12  1  0
 26 21  1  0
 32 27  1  0
  1 35  1  0
  1 36  1  0
  1 37  1  0
  3 38  1  0
  3 39  1  0
  3 40  1  0
  4 41  1  0
  4 42  1  0
  4 43  1  0
  6 44  1  0
  7 45  1  0
 13 46  1  0
 14 47  1  0
 15 48  1  0
 17 49  1  0
 20 50  1  0
 21 51  1  0
 22 52  1  0
 22 53  1  0
 23 54  1  0
 23 55  1  0
 24 56  1  0
 24 57  1  0
 25 58  1  0
 25 59  1  0
 26 60  1  0
 26 61  1  0
 28 62  1  0
 29 63  1  0
 30 64  1  0
 32 65  1  0
 33 66  1  0
 34 67  1  0
M  END
>  <meeko>  (1) 
{"free_energy": -9.377, "intermolecular_energy": -11.764, "internal_energy": -2.562}

$$$$

     RDKit          3D

 67 70  0  0  0  0  0  0  0  0999 V2000
  -16.3780   20.7820  -27.3040 C   0  0  0  0  0  0  0  0  0  0  0  0
  -17.8470   21.2030  -27.1980 C   0  0  0  0  0  0  0  0  0  0  0  0
  -17.9970   22.1160  -25.9620 C   0  0  0  0  0  0  0  0  0  0  0  0
  -18.2450   22.0120  -28.4290 C   0  0  0  0  0  0  0  0  0  0  0  0
  -18.7130   19.8920  -27.1200 C   0  0  0  0  0  0  0  0  0  0  0  0
  -19.0030   19.3210  -25.8740 C   0  0  0  0  0  0  0  0  0  0  0  0
  -19.7770   18.1560  -25.7990 C   0  0  0  0  0  0  0  0  0  0  0  0
  -20.2680   17.5800  -26.9750 C   0  0  0  0  0  0  0  0  0  0  0  0
  -21.0820   16.3480  -26.8570 N   0  0  0  0  0  0  0  0  0  0  0  0
  -22.4390   16.3260  -26.2950 C   0  0  0  0  0  0  0  0  0  0  0  0
  -23.2910   15.8470  -26.9590 O   0  0  0  0  0  0  0  0  0  0  0  0
  -22.7530   16.9070  -24.8970 C   0  0  0  0  0  0  0  0  0  0  0  0
  -23.1870   18.1770  -24.5670 C   0  0  0  0  0  0  0  0  0  0  0  0
  -23.3560   18.2250  -23.2510 N   0  0  0  0  0  0  0  0  0  0  0  0
  -23.0390   17.0270  -22.7640 C   0  0  0  0  0  0  0  0  0  0  0  0
  -22.6760   16.2180  -23.7790 N   0  0  0  0  0  0  0  0  0  0  0  0
  -20.5530   15.1670  -27.4730 C   0  0  0  0  0  0  0  0  0  0  0  0
  -20.0990   14.1940  -26.3440 C   0  0  0  0  0  0  0  0  0  0  0  0
  -19.4220   13.2270  -26.5830 O   0  0  0  0  0  0  0  0  0  0  0  0
  -20.4910   14.5400  -24.9670 N   0  0  0  0  0  0  0  0  0  0  0  0
  -20.1300   13.7450  -23.8190 C   0  0  0  0  0  0  0  0  0  0  0  0
  -18.8080   14.3040  -23.3010 C   0  0  0  0  0  0  0  0  0  0  0  0
  -18.3650   13.6180  -22.0100 C   0  0  0  0  0  0  0  0  0  0  0  0
  -19.4070   13.8220  -20.9490 C   0  0  0  0  0  0  0  0  0  0  0  0
  -20.7980   13.4040  -21.3780 C   0  0  0  0  0  0  0  0  0  0  0  0
  -21.2330   13.9190  -22.7590 C   0  0  0  0  0  0  0  0  0  0  0  0
  -21.4850   14.3040  -28.2700 C   0  0  0  0  0  0  0  0  0  0  0  0
  -21.6420   14.5810  -29.5820 C   0  0  0  0  0  0  0  0  0  0  0  0
  -22.4580   13.7760  -30.3360 C   0  0  0  0  0  0  0  0  0  0  0  0
  -23.0960   12.7020  -29.7450 C   0  0  0  0  0  0  0  0  0  0  0  0
  -22.9190   12.4380  -28.4400 N   0  0  0  0  0  0  0  0  0  0  0  0
  -22.1300   13.2430  -27.6940 C   0  0  0  0  0  0  0  0  0  0  0  0
  -19.9830   18.1330  -28.2090 C   0  0  0  0  0  0  0  0  0  0  0  0
  -19.2050   19.3020  -28.2840 C   0  0  0  0  0  0  0  0  0  0  0  0
  -15.9574   20.6615  -26.2948 H   0  0  0  0  0  0  0  0  0  0  0  0
  -16.3083   19.8277  -27.8467 H   0  0  0  0  0  0  0  0  0  0  0  0
  -15.8134   21.5545  -27.8467 H   0  0  0  0  0  0  0  0  0  0  0  0
  -17.8980   21.5136  -25.0470 H   0  0  0  0  0  0  0  0  0  0  0  0
  -17.2137   22.8881  -25.9792 H   0  0  0  0  0  0  0  0  0  0  0  0
  -18.9862   22.5968  -25.9792 H   0  0  0  0  0  0  0  0  0  0  0  0
  -18.7100   22.9571  -28.1120 H   0  0  0  0  0  0  0  0  0  0  0  0
  -17.3501   22.2275  -29.0312 H   0  0  0  0  0  0  0  0  0  0  0  0
  -18.9619   21.4346  -29.0312 H   0  0  0  0  0  0  0  0  0  0  0  0
  -18.6225   19.7880  -24.9536 H   0  0  0  0  0  0  0  0  0  0  0  0
  -19.9968   17.6980  -24.8233 H   0  0  0  0  0  0  0  0  0  0  0  0
  -23.3618   19.0035  -25.2715 H   0  0  0  0  0  0  0  0  0  0  0  0
  -23.6740   19.0395  -22.7067 H   0  0  0  0  0  0  0  0  0  0  0  0
  -23.0687   16.7427  -21.7018 H   0  0  0  0  0  0  0  0  0  0  0  0
  -19.7908   15.5768  -28.1520 H   0  0  0  0  0  0  0  0  0  0  0  0
  -20.9590   15.2500  -24.8430 H   0  0  0  0  0  0  0  0  0  0  0  0
  -20.0260   12.6767  -24.0595 H   0  0  0  0  0  0  0  0  0  0  0  0
  -18.0336   14.1531  -24.0675 H   0  0  0  0  0  0  0  0  0  0  0  0
  -18.9513   15.3733  -23.0864 H   0  0  0  0  0  0  0  0  0  0  0  0
  -18.2351   12.5412  -22.1934 H   0  0  0  0  0  0  0  0  0  0  0  0
  -17.4115   14.0517  -21.6742 H   0  0  0  0  0  0  0  0  0  0  0  0
  -19.1235   13.2319  -20.0650 H   0  0  0  0  0  0  0  0  0  0  0  0
  -19.4450   14.9007  -20.7369 H   0  0  0  0  0  0  0  0  0  0  0  0
  -20.8336   12.3047  -21.3968 H   0  0  0  0  0  0  0  0  0  0  0  0
  -21.4917   13.8506  -20.6504 H   0  0  0  0  0  0  0  0  0  0  0  0
  -22.1245   13.3605  -23.0806 H   0  0  0  0  0  0  0  0  0  0  0  0
  -21.4457   14.9943  -22.6666 H   0  0  0  0  0  0  0  0  0  0  0  0
  -21.1245   15.4375  -30.0387 H   0  0  0  0  0  0  0  0  0  0  0  0
  -22.6037   13.9845  -31.4062 H   0  0  0  0  0  0  0  0  0  0  0  0
  -23.7537   12.0585  -30.3478 H   0  0  0  0  0  0  0  0  0  0  0  0
  -22.0057   13.0446  -26.6192 H   0  0  0  0  0  0  0  0  0  0  0  0
  -20.3626   17.6614  -29.1274 H   0  0  0  0  0  0  0  0  0  0  0  0
  -18.9840   19.7521  -29.2630 H   0  0  0  0  0  0  0  0  0  0  0  0
  1  2  1  0
  2  3  1  0
  2  4  1  0
  2  5  1  0
  5  6  2  0
  6  7  1  0
  7  8  2  0
  8  9  1  0
  9 10  1  0
 10 11  2  0
 10 12  1  0
 12 13  2  0
 13 14  1  0
 14 15  1  0
 15 16  2  0
  9 17  1  0
 17 18  1  0
 18 19  2  0
 18 20  1  0
 20 21  1  0
 21 22  1  0
 22 23  1  0
 23 24  1  0
 24 25  1  0
 25 26  1  0
 17 27  1  0
 27 28  2  0
 28 29  1  0
 29 30  2  0
 30 31  1  0
 31 32  2  0
  8 33  1  0
 33 34  2  0
 34  5  1  0
 16 12  1  0
 26 21  1  0
 32 27  1  0
  1 35  1  0
  1 36  1  0
  1 37  1  0
  3 38  1  0
  3 39  1  0
  3 40  1  0
  4 41  1  0
  4 42  1  0
  4 43  1  0
  6 44  1  0
  7 45  1  0
 13 46  1  0
 14 47  1  0
 15 48  1  0
 17 49  1  0
 20 50  1  0
 21 51  1  0
 22 52  1  0
 22 53  1  0
 23 54  1  0
 23 55  1  0
 24 56  1  0
 24 57  1  0
 25 58  1  0
 25 59  1  0
 26 60  1  0
 26 61  1  0
 28 62  1  0
 29 63  1  0
 30 64  1  0
 32 65  1  0
 33 66  1  0
 34 67  1  0
M  END
>  <meeko>  (2) 
{"free_energy": -9.332, "intermolecular_energy": -11.719, "internal_energy": -3.299}

$$$$

     RDKit          3D

 67 70  0  0  0  0  0  0  0  0999 V2000
  -18.2290   22.8370  -26.5160 C   0  0  0  0  0  0  0  0  0  0  0  0
  -17.4080   21.7070  -27.1470 C   0  0  0  0  0  0  0  0  0  0  0  0
  -16.7770   22.2430  -28.4500 C   0  0  0  0  0  0  0  0  0  0  0  0
  -16.2750   21.3030  -26.2090 C   0  0  0  0  0  0  0  0  0  0  0  0
  -18.3750   20.4860  -27.3730 C   0  0  0  0  0  0  0  0  0  0  0  0
  -18.2530   19.3440  -26.5720 C   0  0  0  0  0  0  0  0  0  0  0  0
  -19.1140   18.2560  -26.7660 C   0  0  0  0  0  0  0  0  0  0  0  0
  -20.1010   18.3290  -27.7530 C   0  0  0  0  0  0  0  0  0  0  0  0
  -20.9920   17.1580  -27.9310 N   0  0  0  0  0  0  0  0  0  0  0  0
  -22.2690   17.2180  -28.6560 C   0  0  0  0  0  0  0  0  0  0  0  0
  -23.2190   17.5660  -28.0470 O   0  0  0  0  0  0  0  0  0  0  0  0
  -22.3780   16.8380  -30.1510 C   0  0  0  0  0  0  0  0  0  0  0  0
  -22.0260   17.5850  -31.2590 C   0  0  0  0  0  0  0  0  0  0  0  0
  -22.2650   16.8540  -32.3410 N   0  0  0  0  0  0  0  0  0  0  0  0
  -22.7530   15.6850  -31.9330 C   0  0  0  0  0  0  0  0  0  0  0  0
  -22.8140   15.6760  -30.5860 N   0  0  0  0  0  0  0  0  0  0  0  0
  -20.4830   15.8900  -27.5000 C   0  0  0  0  0  0  0  0  0  0  0  0
  -20.7730   15.7450  -25.9770 C   0  0  0  0  0  0  0  0  0  0  0  0
  -21.8580   15.9920  -25.5170 O   0  0  0  0  0  0  0  0  0  0  0  0
  -19.6740   15.2440  -25.1330 N   0  0  0  0  0  0  0  0  0  0  0  0
  -19.7990   15.0420  -23.7100 C   0  0  0  0  0  0  0  0  0  0  0  0
  -20.8890   13.9920  -23.5130 C   0  0  0  0  0  0  0  0  0  0  0  0
  -21.0450   13.6000  -22.0450 C   0  0  0  0  0  0  0  0  0  0  0  0
  -19.7520   13.0350  -21.5340 C   0  0  0  0  0  0  0  0  0  0  0  0
  -18.5620   13.9410  -21.7670 C   0  0  0  0  0  0  0  0  0  0  0  0
  -18.4510   14.5150  -23.1880 C   0  0  0  0  0  0  0  0  0  0  0  0
  -21.1100   14.6470  -28.0560 C   0  0  0  0  0  0  0  0  0  0  0  0
  -20.4950   14.0300  -29.0870 C   0  0  0  0  0  0  0  0  0  0  0  0
  -21.0320   12.8680  -29.5800 C   0  0  0  0  0  0  0  0  0  0  0  0
  -22.1820   12.3520  -29.0150 C   0  0  0  0  0  0  0  0  0  0  0  0
  -22.7750   12.9760  -27.9830 N   0  0  0  0  0  0  0  0  0  0  0  0
  -22.2550   14.1310  -27.5110 C   0  0  0  0  0  0  0  0  0  0  0  0
  -20.2250   19.4490  -28.5530 C   0  0  0  0  0  0  0  0  0  0  0  0
  -19.3600   20.5410  -28.3580 C   0  0  0  0  0  0  0  0  0  0  0  0
  -18.1744   22.7619  -25.4199 H   0  0  0  0  0  0  0  0  0  0  0  0
  -17.8243   23.8080  -26.8376 H   0  0  0  0  0  0  0  0  0  0  0  0
  -19.2775   22.7521  -26.8376 H   0  0  0  0  0  0  0  0  0  0  0  0
  -15.9600   22.9370  -28.2033 H   0  0  0  0  0  0  0  0  0  0  0  0
  -16.3792   21.4024  -29.0376 H   0  0  0  0  0  0  0  0  0  0  0  0
  -17.5422   22.7715  -29.0376 H   0  0  0  0  0  0  0  0  0  0  0  0
  -16.6033   21.4201  -25.1657 H   0  0  0  0  0  0  0  0  0  0  0  0
  -16.0040   20.2528  -26.3924 H   0  0  0  0  0  0  0  0  0  0  0  0
  -15.4006   21.9448  -26.3924 H   0  0  0  0  0  0  0  0  0  0  0  0
  -17.4806   19.3011  -25.7899 H   0  0  0  0  0  0  0  0  0  0  0  0
  -19.0142   17.3522  -26.1470 H   0  0  0  0  0  0  0  0  0  0  0  0
  -21.6189   18.6068  -31.2466 H   0  0  0  0  0  0  0  0  0  0  0  0
  -22.1025   17.1392  -33.3173 H   0  0  0  0  0  0  0  0  0  0  0  0
  -23.0582   14.8575  -32.5903 H   0  0  0  0  0  0  0  0  0  0  0  0
  -19.4358   15.9306  -27.8343 H   0  0  0  0  0  0  0  0  0  0  0  0
  -18.9220   15.0640  -25.5070 H   0  0  0  0  0  0  0  0  0  0  0  0
  -20.0570   15.9663  -23.1723 H   0  0  0  0  0  0  0  0  0  0  0  0
  -21.8444   14.3991  -23.8756 H   0  0  0  0  0  0  0  0  0  0  0  0
  -20.6011   13.0925  -24.0769 H   0  0  0  0  0  0  0  0  0  0  0  0
  -21.3144   14.4888  -21.4555 H   0  0  0  0  0  0  0  0  0  0  0  0
  -21.8367   12.8421  -21.9517 H   0  0  0  0  0  0  0  0  0  0  0  0
  -19.8512   12.8621  -20.4522 H   0  0  0  0  0  0  0  0  0  0  0  0
  -19.5637   12.1048  -22.0902 H   0  0  0  0  0  0  0  0  0  0  0  0
  -18.6316   14.7835  -21.0632 H   0  0  0  0  0  0  0  0  0  0  0  0
  -17.6677   13.3186  -21.6162 H   0  0  0  0  0  0  0  0  0  0  0  0
  -17.7264   15.3426  -23.1799 H   0  0  0  0  0  0  0  0  0  0  0  0
  -18.1251   13.7033  -23.8551 H   0  0  0  0  0  0  0  0  0  0  0  0
  -19.5783   14.4520  -29.5247 H   0  0  0  0  0  0  0  0  0  0  0  0
  -20.5491   12.3495  -30.4214 H   0  0  0  0  0  0  0  0  0  0  0  0
  -22.6159   11.4228  -29.4130 H   0  0  0  0  0  0  0  0  0  0  0  0
  -22.7542   14.6588  -26.6851 H   0  0  0  0  0  0  0  0  0  0  0  0
  -20.9953   19.4863  -29.3374 H   0  0  0  0  0  0  0  0  0  0  0  0
  -19.4610   21.4400  -28.9839 H   0  0  0  0  0  0  0  0  0  0  0  0
  1  2  1  0
  2  3  1  0
  2  4  1  0
  2  5  1  0
  5  6  2  0
  6  7  1  0
  7  8  2  0
  8  9  1  0
  9 10  1  0
 10 11  2  0
 10 12  1  0
 12 13  2  0
 13 14  1  0
 14 15  1  0
 15 16  2  0
  9 17  1  0
 17 18  1  0
 18 19  2  0
 18 20  1  0
 20 21  1  0
 21 22  1  0
 22 23  1  0
 23 24  1  0
 24 25  1  0
 25 26  1  0
 17 27  1  0
 27 28  2  0
 28 29  1  0
 29 30  2  0
 30 31  1  0
 31 32  2  0
  8 33  1  0
 33 34  2  0
 34  5  1  0
 16 12  1  0
 26 21  1  0
 32 27  1  0
  1 35  1  0
  1 36  1  0
  1 37  1  0
  3 38  1  0
  3 39  1  0
  3 40  1  0
  4 41  1  0
  4 42  1  0
  4 43  1  0
  6 44  1  0
  7 45  1  0
 13 46  1  0
 14 47  1  0
 15 48  1  0
 17 49  1  0
 20 50  1  0
 21 51  1  0
 22 52  1  0
 22 53  1  0
 23 54  1  0
 23 55  1  0
 24 56  1  0
 24 57  1  0
 25 58  1  0
 25 59  1  0
 26 60  1  0
 26 61  1  0
 28 62  1  0
 29 63  1  0
 30 64  1  0
 32 65  1  0
 33 66  1  0
 34 67  1  0
M  END
>  <meeko>  (3) 
{"free_energy": -9.264, "intermolecular_energy": -11.65, "internal_energy": -2.522}

$$$$

     RDKit          3D

 67 70  0  0  0  0  0  0  0  0999 V2000
  -16.3000   20.7550  -26.5710 C   0  0  0  0  0  0  0  0  0  0  0  0
  -17.7540   21.1610  -26.8350 C   0  0  0  0  0  0  0  0  0  0  0  0
  -18.1730   22.1770  -25.7510 C   0  0  0  0  0  0  0  0  0  0  0  0
  -17.8610   21.8520  -28.1910 C   0  0  0  0  0  0  0  0  0  0  0  0
  -18.6210   19.8480  -26.8350 C   0  0  0  0  0  0  0  0  0  0  0  0
  -19.3880   19.5200  -25.7110 C   0  0  0  0  0  0  0  0  0  0  0  0
  -20.1660   18.3540  -25.7080 C   0  0  0  0  0  0  0  0  0  0  0  0
  -20.1790   17.5340  -26.8400 C   0  0  0  0  0  0  0  0  0  0  0  0
  -21.0110   16.3090  -26.8010 N   0  0  0  0  0  0  0  0  0  0  0  0
  -22.3870   16.2830  -26.2860 C   0  0  0  0  0  0  0  0  0  0  0  0
  -22.6900   15.3670  -25.6030 O   0  0  0  0  0  0  0  0  0  0  0  0
  -23.4050   17.3970  -26.6180 C   0  0  0  0  0  0  0  0  0  0  0  0
  -24.3970   17.9280  -25.8150 C   0  0  0  0  0  0  0  0  0  0  0  0
  -25.0130   18.8840  -26.5000 N   0  0  0  0  0  0  0  0  0  0  0  0
  -24.4330   18.9560  -27.6960 C   0  0  0  0  0  0  0  0  0  0  0  0
  -23.4410   18.0460  -27.7620 N   0  0  0  0  0  0  0  0  0  0  0  0
  -20.4760   15.1470  -27.4470 C   0  0  0  0  0  0  0  0  0  0  0  0
  -20.0190   14.1480  -26.3440 C   0  0  0  0  0  0  0  0  0  0  0  0
  -19.4440   13.1260  -26.6210 O   0  0  0  0  0  0  0  0  0  0  0  0
  -20.2760   14.5330  -24.9460 N   0  0  0  0  0  0  0  0  0  0  0  0
  -19.8940   13.7180  -23.8180 C   0  0  0  0  0  0  0  0  0  0  0  0
  -18.6220   14.3350  -23.2450 C   0  0  0  0  0  0  0  0  0  0  0  0
  -18.1700   13.6280  -21.9690 C   0  0  0  0  0  0  0  0  0  0  0  0
  -19.2470   13.7280  -20.9290 C   0  0  0  0  0  0  0  0  0  0  0  0
  -20.5990   13.2430  -21.4100 C   0  0  0  0  0  0  0  0  0  0  0  0
  -21.0310   13.7840  -22.7830 C   0  0  0  0  0  0  0  0  0  0  0  0
  -21.4030   14.3010  -28.2680 C   0  0  0  0  0  0  0  0  0  0  0  0
  -21.4780   14.5430  -29.5940 C   0  0  0  0  0  0  0  0  0  0  0  0
  -22.2890   13.7510  -30.3670 C   0  0  0  0  0  0  0  0  0  0  0  0
  -23.0060   12.7270  -29.7790 C   0  0  0  0  0  0  0  0  0  0  0  0
  -22.9120   12.4970  -28.4600 N   0  0  0  0  0  0  0  0  0  0  0  0
  -22.1270   13.2900  -27.6960 C   0  0  0  0  0  0  0  0  0  0  0  0
  -19.4210   17.8470  -27.9520 C   0  0  0  0  0  0  0  0  0  0  0  0
  -18.6400   19.0170  -27.9550 C   0  0  0  0  0  0  0  0  0  0  0  0
  -16.1242   20.7059  -25.4862 H   0  0  0  0  0  0  0  0  0  0  0  0
  -16.1076   19.7688  -27.0186 H   0  0  0  0  0  0  0  0  0  0  0  0
  -15.6245   21.4989  -27.0186 H   0  0  0  0  0  0  0  0  0  0  0  0
  -17.9949   21.7451  -24.7552 H   0  0  0  0  0  0  0  0  0  0  0  0
  -17.5810   23.0974  -25.8627 H   0  0  0  0  0  0  0  0  0  0  0  0
  -19.2417   22.4125  -25.8627 H   0  0  0  0  0  0  0  0  0  0  0  0
  -18.0278   22.9290  -28.0416 H   0  0  0  0  0  0  0  0  0  0  0  0
  -16.9286   21.7001  -28.7545 H   0  0  0  0  0  0  0  0  0  0  0  0
  -18.7038   21.4252  -28.7545 H   0  0  0  0  0  0  0  0  0  0  0  0
  -19.3802   20.1778  -24.8294 H   0  0  0  0  0  0  0  0  0  0  0  0
  -20.7612   18.0866  -24.8224 H   0  0  0  0  0  0  0  0  0  0  0  0
  -24.6345   17.6135  -24.7880 H   0  0  0  0  0  0  0  0  0  0  0  0
  -25.7964   19.4639  -26.1669 H   0  0  0  0  0  0  0  0  0  0  0  0
  -24.7180   19.6480  -28.5021 H   0  0  0  0  0  0  0  0  0  0  0  0
  -19.7149   15.5778  -28.1142 H   0  0  0  0  0  0  0  0  0  0  0  0
  -20.6730   15.2800  -24.7950 H   0  0  0  0  0  0  0  0  0  0  0  0
  -19.7180   12.6680  -24.0945 H   0  0  0  0  0  0  0  0  0  0  0  0
  -17.8213   14.2602  -23.9955 H   0  0  0  0  0  0  0  0  0  0  0  0
  -18.8353   15.3849  -22.9954 H   0  0  0  0  0  0  0  0  0  0  0  0
  -17.9705   12.5688  -22.1885 H   0  0  0  0  0  0  0  0  0  0  0  0
  -17.2533   14.1053  -21.5923 H   0  0  0  0  0  0  0  0  0  0  0  0
  -18.9491   13.1229  -20.0601 H   0  0  0  0  0  0  0  0  0  0  0  0
  -19.3562   14.7934  -20.6780 H   0  0  0  0  0  0  0  0  0  0  0  0
  -20.5663   12.1451  -21.4704 H   0  0  0  0  0  0  0  0  0  0  0  0
  -21.3366   13.6180  -20.6852 H   0  0  0  0  0  0  0  0  0  0  0  0
  -21.8783   13.1855  -23.1489 H   0  0  0  0  0  0  0  0  0  0  0  0
  -21.3117   14.8401  -22.6567 H   0  0  0  0  0  0  0  0  0  0  0  0
  -20.8988   15.3612  -30.0470 H   0  0  0  0  0  0  0  0  0  0  0  0
  -22.3679   13.9305  -31.4494 H   0  0  0  0  0  0  0  0  0  0  0  0
  -23.6598   12.0944  -30.3973 H   0  0  0  0  0  0  0  0  0  0  0  0
  -22.0701   13.1219  -26.6104 H   0  0  0  0  0  0  0  0  0  0  0  0
  -19.4282   17.1848  -28.8303 H   0  0  0  0  0  0  0  0  0  0  0  0
  -18.0434   19.2769  -28.8419 H   0  0  0  0  0  0  0  0  0  0  0  0
  1  2  1  0
  2  3  1  0
  2  4  1  0
  2  5  1  0
  5  6  2  0
  6  7  1  0
  7  8  2  0
  8  9  1  0
  9 10  1  0
 10 11  2  0
 10 12  1  0
 12 13  2  0
 13 14  1  0
 14 15  1  0
 15 16  2  0
  9 17  1  0
 17 18  1  0
 18 19  2  0
 18 20  1  0
 20 21  1  0
 21 22  1  0
 22 23  1  0
 23 24  1  0
 24 25  1  0
 25 26  1  0
 17 27  1  0
 27 28  2  0
 28 29  1  0
 29 30  2  0
 30 31  1  0
 31 32  2  0
  8 33  1  0
 33 34  2  0
 34  5  1  0
 16 12  1  0
 26 21  1  0
 32 27  1  0
  1 35  1  0
  1 36  1  0
  1 37  1  0
  3 38  1  0
  3 39  1  0
  3 40  1  0
  4 41  1  0
  4 42  1  0
  4 43  1  0
  6 44  1  0
  7 45  1  0
 13 46  1  0
 14 47  1  0
 15 48  1  0
 17 49  1  0
 20 50  1  0
 21 51  1  0
 22 52  1  0
 22 53  1  0
 23 54  1  0
 23 55  1  0
 24 56  1  0
 24 57  1  0
 25 58  1  0
 25 59  1  0
 26 60  1  0
 26 61  1  0
 28 62  1  0
 29 63  1  0
 30 64  1  0
 32 65  1  0
 33 66  1  0
 34 67  1  0
M  END
>  <meeko>  (4) 
{"free_energy": -9.04, "intermolecular_energy": -11.426, "internal_energy": -3.269}

$$$$

     RDKit          3D

 67 70  0  0  0  0  0  0  0  0999 V2000
  -19.3990   13.3880  -28.8450 C   0  0  0  0  0  0  0  0  0  0  0  0
  -20.7700   14.0650  -28.7420 C   0  0  0  0  0  0  0  0  0  0  0  0
  -21.6210   13.6110  -29.9470 C   0  0  0  0  0  0  0  0  0  0  0  0
  -21.4790   13.6080  -27.4700 C   0  0  0  0  0  0  0  0  0  0  0  0
  -20.5310   15.6190  -28.6900 C   0  0  0  0  0  0  0  0  0  0  0  0
  -21.6160   16.4850  -28.5070 C   0  0  0  0  0  0  0  0  0  0  0  0
  -21.4070   17.8690  -28.4560 C   0  0  0  0  0  0  0  0  0  0  0  0
  -20.1090   18.3740  -28.5740 C   0  0  0  0  0  0  0  0  0  0  0  0
  -19.9270   19.8430  -28.5160 N   0  0  0  0  0  0  0  0  0  0  0  0
  -20.0570   20.7200  -29.6880 C   0  0  0  0  0  0  0  0  0  0  0  0
  -19.8270   21.8680  -29.5310 O   0  0  0  0  0  0  0  0  0  0  0  0
  -20.4810   20.1770  -31.0720 C   0  0  0  0  0  0  0  0  0  0  0  0
  -20.1200   20.6320  -32.3250 C   0  0  0  0  0  0  0  0  0  0  0  0
  -20.6960   19.8490  -33.2290 N   0  0  0  0  0  0  0  0  0  0  0  0
  -21.3980   18.9290  -32.5720 C   0  0  0  0  0  0  0  0  0  0  0  0
  -21.2580   19.1290  -31.2460 N   0  0  0  0  0  0  0  0  0  0  0  0
  -19.7710   20.4210  -27.2140 C   0  0  0  0  0  0  0  0  0  0  0  0
  -19.5640   19.2650  -26.1930 C   0  0  0  0  0  0  0  0  0  0  0  0
  -18.4640   18.9440  -25.8220 O   0  0  0  0  0  0  0  0  0  0  0  0
  -20.7750   18.6170  -25.6620 N   0  0  0  0  0  0  0  0  0  0  0  0
  -20.7420   17.5450  -24.6980 C   0  0  0  0  0  0  0  0  0  0  0  0
  -22.1400   16.9350  -24.6760 C   0  0  0  0  0  0  0  0  0  0  0  0
  -22.2130   15.7070  -23.7700 C   0  0  0  0  0  0  0  0  0  0  0  0
  -21.2530   14.6620  -24.2600 C   0  0  0  0  0  0  0  0  0  0  0  0
  -19.8380   15.1720  -24.4290 C   0  0  0  0  0  0  0  0  0  0  0  0
  -19.7150   16.5070  -25.1830 C   0  0  0  0  0  0  0  0  0  0  0  0
  -18.5690   21.2820  -26.9590 C   0  0  0  0  0  0  0  0  0  0  0  0
  -17.4610   21.0620  -27.6970 C   0  0  0  0  0  0  0  0  0  0  0  0
  -16.3670   21.8680  -27.5060 C   0  0  0  0  0  0  0  0  0  0  0  0
  -16.4200   22.8830  -26.5700 C   0  0  0  0  0  0  0  0  0  0  0  0
  -17.5360   23.0900  -25.8510 N   0  0  0  0  0  0  0  0  0  0  0  0
  -18.6060   22.2840  -26.0280 C   0  0  0  0  0  0  0  0  0  0  0  0
  -19.0330   17.5270  -28.7600 C   0  0  0  0  0  0  0  0  0  0  0  0
  -19.2420   16.1370  -28.8120 C   0  0  0  0  0  0  0  0  0  0  0  0
  -19.0085   13.1952  -27.8349 H   0  0  0  0  0  0  0  0  0  0  0  0
  -19.4999   12.4361  -29.3870 H   0  0  0  0  0  0  0  0  0  0  0  0
  -18.7046   14.0468  -29.3870 H   0  0  0  0  0  0  0  0  0  0  0  0
  -22.5375   13.1220  -29.5852 H   0  0  0  0  0  0  0  0  0  0  0  0
  -21.8887   14.4861  -30.5573 H   0  0  0  0  0  0  0  0  0  0  0  0
  -21.0432   12.9013  -30.5573 H   0  0  0  0  0  0  0  0  0  0  0  0
  -20.9228   13.9665  -26.5913 H   0  0  0  0  0  0  0  0  0  0  0  0
  -22.4992   14.0190  -27.4510 H   0  0  0  0  0  0  0  0  0  0  0  0
  -21.5260   12.5092  -27.4510 H   0  0  0  0  0  0  0  0  0  0  0  0
  -22.6328   16.0783  -28.4033 H   0  0  0  0  0  0  0  0  0  0  0  0
  -22.2580   18.5534  -28.3241 H   0  0  0  0  0  0  0  0  0  0  0  0
  -19.4689   21.4929  -32.5369 H   0  0  0  0  0  0  0  0  0  0  0  0
  -20.6145   19.9374  -34.2520 H   0  0  0  0  0  0  0  0  0  0  0  0
  -21.9972   18.1321  -33.0368 H   0  0  0  0  0  0  0  0  0  0  0  0
  -20.6719   21.0458  -27.1240 H   0  0  0  0  0  0  0  0  0  0  0  0
  -21.5400   18.8920  -25.9420 H   0  0  0  0  0  0  0  0  0  0  0  0
  -20.4598   17.8887  -23.6919 H   0  0  0  0  0  0  0  0  0  0  0  0
  -22.8513   17.6898  -24.3096 H   0  0  0  0  0  0  0  0  0  0  0  0
  -22.3892   16.6181  -25.6995 H   0  0  0  0  0  0  0  0  0  0  0  0
  -21.9479   15.9943  -22.7418 H   0  0  0  0  0  0  0  0  0  0  0  0
  -23.2351   15.3008  -23.7869 H   0  0  0  0  0  0  0  0  0  0  0  0
  -21.2403   13.8342  -23.5357 H   0  0  0  0  0  0  0  0  0  0  0  0
  -21.6021   14.3430  -25.2531 H   0  0  0  0  0  0  0  0  0  0  0  0
  -19.4007   15.3035  -23.4283 H   0  0  0  0  0  0  0  0  0  0  0  0
  -19.3119   14.4237  -25.0400 H   0  0  0  0  0  0  0  0  0  0  0  0
  -18.7034   16.9100  -25.0272 H   0  0  0  0  0  0  0  0  0  0  0  0
  -19.9087   16.3124  -26.2482 H   0  0  0  0  0  0  0  0  0  0  0  0
  -17.4352   20.2504  -28.4391 H   0  0  0  0  0  0  0  0  0  0  0  0
  -15.4522   21.7068  -28.0952 H   0  0  0  0  0  0  0  0  0  0  0  0
  -15.5419   23.5265  -26.4123 H   0  0  0  0  0  0  0  0  0  0  0  0
  -19.5109   22.4341  -25.4209 H   0  0  0  0  0  0  0  0  0  0  0  0
  -18.0182   17.9378  -28.8668 H   0  0  0  0  0  0  0  0  0  0  0  0
  -18.3877   15.4578  -28.9491 H   0  0  0  0  0  0  0  0  0  0  0  0
  1  2  1  0
  2  3  1  0
  2  4  1  0
  2  5  1  0
  5  6  2  0
  6  7  1  0
  7  8  2  0
  8  9  1  0
  9 10  1  0
 10 11  2  0
 10 12  1  0
 12 13  2  0
 13 14  1  0
 14 15  1  0
 15 16  2  0
  9 17  1  0
 17 18  1  0
 18 19  2  0
 18 20  1  0
 20 21  1  0
 21 22  1  0
 22 23  1  0
 23 24  1  0
 24 25  1  0
 25 26  1  0
 17 27  1  0
 27 28  2  0
 28 29  1  0
 29 30  2  0
 30 31  1  0
 31 32  2  0
  8 33  1  0
 33 34  2  0
 34  5  1  0
 16 12  1  0
 26 21  1  0
 32 27  1  0
  1 35  1  0
  1 36  1  0
  1 37  1  0
  3 38  1  0
  3 39  1  0
  3 40  1  0
  4 41  1  0
  4 42  1  0
  4 43  1  0
  6 44  1  0
  7 45  1  0
 13 46  1  0
 14 47  1  0
 15 48  1  0
 17 49  1  0
 20 50  1  0
 21 51  1  0
 22 52  1  0
 22 53  1  0
 23 54  1  0
 23 55  1  0
 24 56  1  0
 24 57  1  0
 25 58  1  0
 25 59  1  0
 26 60  1  0
 26 61  1  0
 28 62  1  0
 29 63  1  0
 30 64  1  0
 32 65  1  0
 33 66  1  0
 34 67  1  0
M  END
>  <meeko>  (5) 
{"free_energy": -8.918, "intermolecular_energy": -11.305, "internal_energy": -3.313}

$$$$

     RDKit          3D

 67 70  0  0  0  0  0  0  0  0999 V2000
  -22.0030   16.1910  -31.2040 C   0  0  0  0  0  0  0  0  0  0  0  0
  -22.1380   17.4960  -30.4120 C   0  0  0  0  0  0  0  0  0  0  0  0
  -21.2310   18.5540  -31.0760 C   0  0  0  0  0  0  0  0  0  0  0  0
  -23.5760   18.0000  -30.4840 C   0  0  0  0  0  0  0  0  0  0  0  0
  -21.7540   17.1870  -28.9180 C   0  0  0  0  0  0  0  0  0  0  0  0
  -22.7290   17.2740  -27.9160 C   0  0  0  0  0  0  0  0  0  0  0  0
  -22.3940   16.9960  -26.5850 C   0  0  0  0  0  0  0  0  0  0  0  0
  -21.0850   16.6180  -26.2710 C   0  0  0  0  0  0  0  0  0  0  0  0
  -20.7670   16.3330  -24.8520 N   0  0  0  0  0  0  0  0  0  0  0  0
  -20.3880   17.3710  -23.8840 C   0  0  0  0  0  0  0  0  0  0  0  0
  -20.5430   17.1250  -22.7390 O   0  0  0  0  0  0  0  0  0  0  0  0
  -19.8140   18.7350  -24.3320 C   0  0  0  0  0  0  0  0  0  0  0  0
  -19.9940   19.9780  -23.7570 C   0  0  0  0  0  0  0  0  0  0  0  0
  -19.2910   20.8610  -24.4580 N   0  0  0  0  0  0  0  0  0  0  0  0
  -18.6870   20.2000  -25.4420 C   0  0  0  0  0  0  0  0  0  0  0  0
  -19.0050   18.8930  -25.3580 N   0  0  0  0  0  0  0  0  0  0  0  0
  -21.0010   14.9940  -24.3970 C   0  0  0  0  0  0  0  0  0  0  0  0
  -20.8020   14.0310  -25.6040 C   0  0  0  0  0  0  0  0  0  0  0  0
  -19.8040   13.3660  -25.7200 O   0  0  0  0  0  0  0  0  0  0  0  0
  -21.9100   13.9320  -26.5690 N   0  0  0  0  0  0  0  0  0  0  0  0
  -21.8780   13.0710  -27.7250 C   0  0  0  0  0  0  0  0  0  0  0  0
  -23.1280   13.3890  -28.5410 C   0  0  0  0  0  0  0  0  0  0  0  0
  -23.1600   12.6190  -29.8600 C   0  0  0  0  0  0  0  0  0  0  0  0
  -21.9580   12.9810  -30.6840 C   0  0  0  0  0  0  0  0  0  0  0  0
  -20.6460   12.8110  -29.9470 C   0  0  0  0  0  0  0  0  0  0  0  0
  -20.6130   13.4130  -28.5330 C   0  0  0  0  0  0  0  0  0  0  0  0
  -20.0620   14.4160  -23.3800 C   0  0  0  0  0  0  0  0  0  0  0  0
  -18.7730   14.8160  -23.4040 C   0  0  0  0  0  0  0  0  0  0  0  0
  -17.9100   14.3290  -22.4540 C   0  0  0  0  0  0  0  0  0  0  0  0
  -18.3740   13.4480  -21.4960 C   0  0  0  0  0  0  0  0  0  0  0  0
  -19.6630   13.0690  -21.4840 N   0  0  0  0  0  0  0  0  0  0  0  0
  -20.5070   13.5350  -22.4320 C   0  0  0  0  0  0  0  0  0  0  0  0
  -20.1150   16.5340  -27.2510 C   0  0  0  0  0  0  0  0  0  0  0  0
  -20.4520   16.8140  -28.5880 C   0  0  0  0  0  0  0  0  0  0  0  0
  -21.9155   15.3456  -30.5056 H   0  0  0  0  0  0  0  0  0  0  0  0
  -22.8917   16.0529  -31.8374 H   0  0  0  0  0  0  0  0  0  0  0  0
  -21.1049   16.2377  -31.8374 H   0  0  0  0  0  0  0  0  0  0  0  0
  -20.7252   19.1440  -30.2975 H   0  0  0  0  0  0  0  0  0  0  0  0
  -20.4789   18.0514  -31.7018 H   0  0  0  0  0  0  0  0  0  0  0  0
  -21.8426   19.2205  -31.7018 H   0  0  0  0  0  0  0  0  0  0  0  0
  -23.9678   18.1373  -29.4654 H   0  0  0  0  0  0  0  0  0  0  0  0
  -23.6015   18.9606  -31.0193 H   0  0  0  0  0  0  0  0  0  0  0  0
  -24.1956   17.2655  -31.0193 H   0  0  0  0  0  0  0  0  0  0  0  0
  -23.7589   17.5610  -28.1749 H   0  0  0  0  0  0  0  0  0  0  0  0
  -23.1539   17.0743  -25.7936 H   0  0  0  0  0  0  0  0  0  0  0  0
  -20.6112   20.1982  -22.8735 H   0  0  0  0  0  0  0  0  0  0  0  0
  -19.2256   21.8722  -24.2734 H   0  0  0  0  0  0  0  0  0  0  0  0
  -18.0321   20.6489  -26.2033 H   0  0  0  0  0  0  0  0  0  0  0  0
  -22.0009   15.0700  -23.9448 H   0  0  0  0  0  0  0  0  0  0  0  0
  -22.6100   14.4120  -26.4360 H   0  0  0  0  0  0  0  0  0  0  0  0
  -21.8578   12.0042  -27.4575 H   0  0  0  0  0  0  0  0  0  0  0  0
  -24.0160   13.1194  -27.9505 H   0  0  0  0  0  0  0  0  0  0  0  0
  -23.1176   14.4639  -28.7746 H   0  0  0  0  0  0  0  0  0  0  0  0
  -23.1504   11.5386  -29.6535 H   0  0  0  0  0  0  0  0  0  0  0  0
  -24.0742   12.8801  -30.4133 H   0  0  0  0  0  0  0  0  0  0  0  0
  -21.9416   12.3384  -31.5766 H   0  0  0  0  0  0  0  0  0  0  0  0
  -22.0499   14.0472  -30.9387 H   0  0  0  0  0  0  0  0  0  0  0  0
  -20.4380   11.7340  -29.8644 H   0  0  0  0  0  0  0  0  0  0  0  0
  -19.8916   13.3577  -30.5318 H   0  0  0  0  0  0  0  0  0  0  0  0
  -19.7352   13.0183  -28.0005 H   0  0  0  0  0  0  0  0  0  0  0  0
  -20.5622   14.5072  -28.6332 H   0  0  0  0  0  0  0  0  0  0  0  0
  -18.4201   15.5203  -24.1718 H   0  0  0  0  0  0  0  0  0  0  0  0
  -16.8545   14.6385  -22.4554 H   0  0  0  0  0  0  0  0  0  0  0  0
  -17.6824   13.0537  -20.7369 H   0  0  0  0  0  0  0  0  0  0  0  0
  -21.5561   13.2045  -22.4413 H   0  0  0  0  0  0  0  0  0  0  0  0
  -19.0855   16.2499  -26.9877 H   0  0  0  0  0  0  0  0  0  0  0  0
  -19.6866   16.7384  -29.3744 H   0  0  0  0  0  0  0  0  0  0  0  0
  1  2  1  0
  2  3  1  0
  2  4  1  0
  2  5  1  0
  5  6  2  0
  6  7  1  0
  7  8  2  0
  8  9  1  0
  9 10  1  0
 10 11  2  0
 10 12  1  0
 12 13  2  0
 13 14  1  0
 14 15  1  0
 15 16  2  0
  9 17  1  0
 17 18  1  0
 18 19  2  0
 18 20  1  0
 20 21  1  0
 21 22  1  0
 22 23  1  0
 23 24  1  0
 24 25  1  0
 25 26  1  0
 17 27  1  0
 27 28  2  0
 28 29  1  0
 29 30  2  0
 30 31  1  0
 31 32  2  0
  8 33  1  0
 33 34  2  0
 34  5  1  0
 16 12  1  0
 26 21  1  0
 32 27  1  0
  1 35  1  0
  1 36  1  0
  1 37  1  0
  3 38  1  0
  3 39  1  0
  3 40  1  0
  4 41  1  0
  4 42  1  0
  4 43  1  0
  6 44  1  0
  7 45  1  0
 13 46  1  0
 14 47  1  0
 15 48  1  0
 17 49  1  0
 20 50  1  0
 21 51  1  0
 22 52  1  0
 22 53  1  0
 23 54  1  0
 23 55  1  0
 24 56  1  0
 24 57  1  0
 25 58  1  0
 25 59  1  0
 26 60  1  0
 26 61  1  0
 28 62  1  0
 29 63  1  0
 30 64  1  0
 32 65  1  0
 33 66  1  0
 34 67  1  0
M  END
>  <meeko>  (6) 
{"free_energy": -8.545, "intermolecular_energy": -10.932, "internal_energy": -3.157}

$$$$

     RDKit          3D

 67 70  0  0  0  0  0  0  0  0999 V2000
  -21.2320   18.5730  -30.9700 C   0  0  0  0  0  0  0  0  0  0  0  0
  -22.1690   17.4880  -30.4310 C   0  0  0  0  0  0  0  0  0  0  0  0
  -23.6220   17.9770  -30.6110 C   0  0  0  0  0  0  0  0  0  0  0  0
  -22.0030   16.2070  -31.2440 C   0  0  0  0  0  0  0  0  0  0  0  0
  -21.7770   17.2220  -28.9310 C   0  0  0  0  0  0  0  0  0  0  0  0
  -20.4410   16.9670  -28.5950 C   0  0  0  0  0  0  0  0  0  0  0  0
  -20.0860   16.7340  -27.2600 C   0  0  0  0  0  0  0  0  0  0  0  0
  -21.0720   16.7730  -26.2700 C   0  0  0  0  0  0  0  0  0  0  0  0
  -20.6600   16.5200  -24.8690 N   0  0  0  0  0  0  0  0  0  0  0  0
  -20.1320   17.5640  -23.9810 C   0  0  0  0  0  0  0  0  0  0  0  0
  -19.2500   18.2320  -24.3970 O   0  0  0  0  0  0  0  0  0  0  0  0
  -20.6940   17.7880  -22.5580 C   0  0  0  0  0  0  0  0  0  0  0  0
  -20.1280   18.4810  -21.5050 C   0  0  0  0  0  0  0  0  0  0  0  0
  -20.9740   18.4400  -20.4830 N   0  0  0  0  0  0  0  0  0  0  0  0
  -22.0390   17.7440  -20.8740 C   0  0  0  0  0  0  0  0  0  0  0  0
  -21.8670   17.3510  -22.1520 N   0  0  0  0  0  0  0  0  0  0  0  0
  -20.9480   15.2210  -24.3390 C   0  0  0  0  0  0  0  0  0  0  0  0
  -20.7440   14.1770  -25.4760 C   0  0  0  0  0  0  0  0  0  0  0  0
  -19.7870   13.4460  -25.4940 O   0  0  0  0  0  0  0  0  0  0  0  0
  -21.8000   14.0900  -26.4990 N   0  0  0  0  0  0  0  0  0  0  0  0
  -21.7580   13.1610  -27.6020 C   0  0  0  0  0  0  0  0  0  0  0  0
  -23.0800   13.3130  -28.3500 C   0  0  0  0  0  0  0  0  0  0  0  0
  -23.1200   12.4590  -29.6150 C   0  0  0  0  0  0  0  0  0  0  0  0
  -22.0110   12.8720  -30.5380 C   0  0  0  0  0  0  0  0  0  0  0  0
  -20.6460   12.8680  -29.8820 C   0  0  0  0  0  0  0  0  0  0  0  0
  -20.5830   13.5620  -28.5120 C   0  0  0  0  0  0  0  0  0  0  0  0
  -20.0580   14.6810  -23.2590 C   0  0  0  0  0  0  0  0  0  0  0  0
  -20.6380   14.1000  -22.1870 C   0  0  0  0  0  0  0  0  0  0  0  0
  -19.8390   13.5640  -21.2100 C   0  0  0  0  0  0  0  0  0  0  0  0
  -18.4650   13.6250  -21.3410 C   0  0  0  0  0  0  0  0  0  0  0  0
  -17.9060   14.1990  -22.4190 N   0  0  0  0  0  0  0  0  0  0  0  0
  -18.6960   14.7440  -23.3720 C   0  0  0  0  0  0  0  0  0  0  0  0
  -22.3930   17.0180  -26.5920 C   0  0  0  0  0  0  0  0  0  0  0  0
  -22.7490   17.2520  -27.9320 C   0  0  0  0  0  0  0  0  0  0  0  0
  -20.7691   19.1090  -30.1283 H   0  0  0  0  0  0  0  0  0  0  0  0
  -20.4472   18.1076  -31.5844 H   0  0  0  0  0  0  0  0  0  0  0  0
  -21.8067   19.2817  -31.5844 H   0  0  0  0  0  0  0  0  0  0  0  0
  -24.0818   18.1317  -29.6237 H   0  0  0  0  0  0  0  0  0  0  0  0
  -23.6234   18.9251  -31.1688 H   0  0  0  0  0  0  0  0  0  0  0  0
  -24.1963   17.2226  -31.1688 H   0  0  0  0  0  0  0  0  0  0  0  0
  -21.8921   15.3514  -30.5616 H   0  0  0  0  0  0  0  0  0  0  0  0
  -22.8893   16.0578  -31.8782 H   0  0  0  0  0  0  0  0  0  0  0  0
  -21.1079   16.2886  -31.8782 H   0  0  0  0  0  0  0  0  0  0  0  0
  -19.6704   16.9497  -29.3798 H   0  0  0  0  0  0  0  0  0  0  0  0
  -19.0401   16.5221  -26.9931 H   0  0  0  0  0  0  0  0  0  0  0  0
  -19.1475   18.9796  -21.5124 H   0  0  0  0  0  0  0  0  0  0  0  0
  -20.8323   18.8683  -19.5571 H   0  0  0  0  0  0  0  0  0  0  0  0
  -22.9198   17.5243  -20.2528 H   0  0  0  0  0  0  0  0  0  0  0  0
  -21.9578   15.3558  -23.9240 H   0  0  0  0  0  0  0  0  0  0  0  0
  -22.4740   14.6200  -26.4360 H   0  0  0  0  0  0  0  0  0  0  0  0
  -21.6213   12.1201  -27.2737 H   0  0  0  0  0  0  0  0  0  0  0  0
  -23.9014   13.0046  -27.6866 H   0  0  0  0  0  0  0  0  0  0  0  0
  -23.1844   14.3670  -28.6469 H   0  0  0  0  0  0  0  0  0  0  0  0
  -22.9963   11.3998  -29.3454 H   0  0  0  0  0  0  0  0  0  0  0  0
  -24.0868   12.6005  -30.1202 H   0  0  0  0  0  0  0  0  0  0  0  0
  -21.9899   12.1765  -31.3900 H   0  0  0  0  0  0  0  0  0  0  0  0
  -22.2174   13.9067  -30.8491 H   0  0  0  0  0  0  0  0  0  0  0  0
  -20.3340   11.8216  -29.7494 H   0  0  0  0  0  0  0  0  0  0  0  0
  -19.9827   13.4398  -30.5477 H   0  0  0  0  0  0  0  0  0  0  0  0
  -19.6408   13.2839  -28.0171 H   0  0  0  0  0  0  0  0  0  0  0  0
  -20.6418   14.6474  -28.6805 H   0  0  0  0  0  0  0  0  0  0  0  0
  -21.7336   14.0574  -22.0989 H   0  0  0  0  0  0  0  0  0  0  0  0
  -20.2896   13.0880  -20.3266 H   0  0  0  0  0  0  0  0  0  0  0  0
  -17.8231   13.1997  -20.5554 H   0  0  0  0  0  0  0  0  0  0  0  0
  -18.2413   15.2402  -24.2420 H   0  0  0  0  0  0  0  0  0  0  0  0
  -23.1614   17.0299  -25.8050 H   0  0  0  0  0  0  0  0  0  0  0  0
  -23.7973   17.4593  -28.1928 H   0  0  0  0  0  0  0  0  0  0  0  0
  1  2  1  0
  2  3  1  0
  2  4  1  0
  2  5  1  0
  5  6  2  0
  6  7  1  0
  7  8  2  0
  8  9  1  0
  9 10  1  0
 10 11  2  0
 10 12  1  0
 12 13  2  0
 13 14  1  0
 14 15  1  0
 15 16  2  0
  9 17  1  0
 17 18  1  0
 18 19  2  0
 18 20  1  0
 20 21  1  0
 21 22  1  0
 22 23  1  0
 23 24  1  0
 24 25  1  0
 25 26  1  0
 17 27  1  0
 27 28  2  0
 28 29  1  0
 29 30  2  0
 30 31  1  0
 31 32  2  0
  8 33  1  0
 33 34  2  0
 34  5  1  0
 16 12  1  0
 26 21  1  0
 32 27  1  0
  1 35  1  0
  1 36  1  0
  1 37  1  0
  3 38  1  0
  3 39  1  0
  3 40  1  0
  4 41  1  0
  4 42  1  0
  4 43  1  0
  6 44  1  0
  7 45  1  0
 13 46  1  0
 14 47  1  0
 15 48  1  0
 17 49  1  0
 20 50  1  0
 21 51  1  0
 22 52  1  0
 22 53  1  0
 23 54  1  0
 23 55  1  0
 24 56  1  0
 24 57  1  0
 25 58  1  0
 25 59  1  0
 26 60  1  0
 26 61  1  0
 28 62  1  0
 29 63  1  0
 30 64  1  0
 32 65  1  0
 33 66  1  0
 34 67  1  0
M  END
>  <meeko>  (7) 
{"free_energy": -8.375, "intermolecular_energy": -10.762, "internal_energy": -3.232}

$$$$

     RDKit          3D

 67 70  0  0  0  0  0  0  0  0999 V2000
  -20.7240   13.9220  -29.2840 C   0  0  0  0  0  0  0  0  0  0  0  0
  -19.6190   14.1410  -28.2460 C   0  0  0  0  0  0  0  0  0  0  0  0
  -19.9220   13.2480  -27.0250 C   0  0  0  0  0  0  0  0  0  0  0  0
  -18.2740   13.7060  -28.8220 C   0  0  0  0  0  0  0  0  0  0  0  0
  -19.5820   15.6770  -27.9080 C   0  0  0  0  0  0  0  0  0  0  0  0
  -19.0380   16.5810  -28.8290 C   0  0  0  0  0  0  0  0  0  0  0  0
  -19.0070   17.9500  -28.5350 C   0  0  0  0  0  0  0  0  0  0  0  0
  -19.5370   18.4040  -27.3230 C   0  0  0  0  0  0  0  0  0  0  0  0
  -19.4860   19.8590  -27.0450 N   0  0  0  0  0  0  0  0  0  0  0  0
  -20.4270   20.5440  -26.1500 C   0  0  0  0  0  0  0  0  0  0  0  0
  -21.3360   21.1080  -26.6520 O   0  0  0  0  0  0  0  0  0  0  0  0
  -20.2470   20.5380  -24.6150 C   0  0  0  0  0  0  0  0  0  0  0  0
  -20.6100   21.5070  -23.6990 C   0  0  0  0  0  0  0  0  0  0  0  0
  -20.2900   21.0690  -22.4870 N   0  0  0  0  0  0  0  0  0  0  0  0
  -19.7430   19.8640  -22.6300 C   0  0  0  0  0  0  0  0  0  0  0  0
  -19.7240   19.5380  -23.9380 N   0  0  0  0  0  0  0  0  0  0  0  0
  -18.3580   20.5740  -27.5660 C   0  0  0  0  0  0  0  0  0  0  0  0
  -18.8560   21.4870  -28.7240 C   0  0  0  0  0  0  0  0  0  0  0  0
  -18.1120   22.2450  -29.2920 O   0  0  0  0  0  0  0  0  0  0  0  0
  -20.2660   21.3440  -29.1280 N   0  0  0  0  0  0  0  0  0  0  0  0
  -20.8640   22.1090  -30.1940 C   0  0  0  0  0  0  0  0  0  0  0  0
  -20.2830   21.5680  -31.4980 C   0  0  0  0  0  0  0  0  0  0  0  0
  -20.9220   22.2210  -32.7220 C   0  0  0  0  0  0  0  0  0  0  0  0
  -22.3990   21.9540  -32.7220 C   0  0  0  0  0  0  0  0  0  0  0  0
  -23.0850   22.3500  -31.4310 C   0  0  0  0  0  0  0  0  0  0  0  0
  -22.3840   21.8710  -30.1500 C   0  0  0  0  0  0  0  0  0  0  0  0
  -17.6660   21.5580  -26.6700 C   0  0  0  0  0  0  0  0  0  0  0  0
  -16.3870   21.3090  -26.3190 C   0  0  0  0  0  0  0  0  0  0  0  0
  -15.7250   22.2200  -25.5350 C   0  0  0  0  0  0  0  0  0  0  0  0
  -16.3750   23.3680  -25.1240 C   0  0  0  0  0  0  0  0  0  0  0  0
  -17.6450   23.6020  -25.4910 N   0  0  0  0  0  0  0  0  0  0  0  0
  -18.3020   22.6940  -26.2480 C   0  0  0  0  0  0  0  0  0  0  0  0
  -20.0710   17.5200  -26.4060 C   0  0  0  0  0  0  0  0  0  0  0  0
  -20.1010   16.1450  -26.7020 C   0  0  0  0  0  0  0  0  0  0  0  0
  -21.6779   13.7330  -28.7698 H   0  0  0  0  0  0  0  0  0  0  0  0
  -20.8184   14.8189  -29.9138 H   0  0  0  0  0  0  0  0  0  0  0  0
  -20.4692   13.0569  -29.9138 H   0  0  0  0  0  0  0  0  0  0  0  0
  -19.7303   13.8130  -26.1009 H   0  0  0  0  0  0  0  0  0  0  0  0
  -20.9764   12.9357  -27.0518 H   0  0  0  0  0  0  0  0  0  0  0  0
  -19.2754   12.3585  -27.0518 H   0  0  0  0  0  0  0  0  0  0  0  0
  -17.5786   13.4811  -27.9999 H   0  0  0  0  0  0  0  0  0  0  0  0
  -18.4135   12.8072  -29.4406 H   0  0  0  0  0  0  0  0  0  0  0  0
  -17.8607   14.5163  -29.4406 H   0  0  0  0  0  0  0  0  0  0  0  0
  -18.6345   16.2153  -29.7847 H   0  0  0  0  0  0  0  0  0  0  0  0
  -18.5698   18.6616  -29.2508 H   0  0  0  0  0  0  0  0  0  0  0  0
  -21.0818   22.4727  -23.9331 H   0  0  0  0  0  0  0  0  0  0  0  0
  -20.4379   21.5698  -21.5992 H   0  0  0  0  0  0  0  0  0  0  0  0
  -19.3662   19.2340  -21.8108 H   0  0  0  0  0  0  0  0  0  0  0  0
  -17.6539   19.7626  -27.8025 H   0  0  0  0  0  0  0  0  0  0  0  0
  -20.7550   20.7770  -28.7060 H   0  0  0  0  0  0  0  0  0  0  0  0
  -20.6646   23.1871  -30.1045 H   0  0  0  0  0  0  0  0  0  0  0  0
  -19.2010   21.7656  -31.5140 H   0  0  0  0  0  0  0  0  0  0  0  0
  -20.4903   20.4886  -31.5410 H   0  0  0  0  0  0  0  0  0  0  0  0
  -20.7463   23.3064  -32.6914 H   0  0  0  0  0  0  0  0  0  0  0  0
  -20.4750   21.8010  -33.6351 H   0  0  0  0  0  0  0  0  0  0  0  0
  -22.8552   22.5211  -33.5468 H   0  0  0  0  0  0  0  0  0  0  0  0
  -22.5313   20.8682  -32.8386 H   0  0  0  0  0  0  0  0  0  0  0  0
  -23.1430   23.4480  -31.3982 H   0  0  0  0  0  0  0  0  0  0  0  0
  -24.0702   21.8610  -31.4437 H   0  0  0  0  0  0  0  0  0  0  0  0
  -22.8031   22.4168  -29.2918 H   0  0  0  0  0  0  0  0  0  0  0  0
  -22.5532   20.7880  -30.0578 H   0  0  0  0  0  0  0  0  0  0  0  0
  -15.8834   20.3909  -26.6558 H   0  0  0  0  0  0  0  0  0  0  0  0
  -14.6825   22.0374  -25.2353 H   0  0  0  0  0  0  0  0  0  0  0  0
  -15.8474   24.0964  -24.4907 H   0  0  0  0  0  0  0  0  0  0  0  0
  -19.3519   22.8693  -26.5257 H   0  0  0  0  0  0  0  0  0  0  0  0
  -20.4705   17.8889  -25.4498 H   0  0  0  0  0  0  0  0  0  0  0  0
  -20.5350   15.4376  -25.9800 H   0  0  0  0  0  0  0  0  0  0  0  0
  1  2  1  0
  2  3  1  0
  2  4  1  0
  2  5  1  0
  5  6  2  0
  6  7  1  0
  7  8  2  0
  8  9  1  0
  9 10  1  0
 10 11  2  0
 10 12  1  0
 12 13  2  0
 13 14  1  0
 14 15  1  0
 15 16  2  0
  9 17  1  0
 17 18  1  0
 18 19  2  0
 18 20  1  0
 20 21  1  0
 21 22  1  0
 22 23  1  0
 23 24  1  0
 24 25  1  0
 25 26  1  0
 17 27  1  0
 27 28  2  0
 28 29  1  0
 29 30  2  0
 30 31  1  0
 31 32  2  0
  8 33  1  0
 33 34  2  0
 34  5  1  0
 16 12  1  0
 26 21  1  0
 32 27  1  0
  1 35  1  0
  1 36  1  0
  1 37  1  0
  3 38  1  0
  3 39  1  0
  3 40  1  0
  4 41  1  0
  4 42  1  0
  4 43  1  0
  6 44  1  0
  7 45  1  0
 13 46  1  0
 14 47  1  0
 15 48  1  0
 17 49  1  0
 20 50  1  0
 21 51  1  0
 22 52  1  0
 22 53  1  0
 23 54  1  0
 23 55  1  0
 24 56  1  0
 24 57  1  0
 25 58  1  0
 25 59  1  0
 26 60  1  0
 26 61  1  0
 28 62  1  0
 29 63  1  0
 30 64  1  0
 32 65  1  0
 33 66  1  0
 34 67  1  0
M  END
>  <meeko>  (8) 
{"free_energy": -8.246, "intermolecular_energy": -10.632, "internal_energy": -3.301}

$$$$

     RDKit          3D

 67 70  0  0  0  0  0  0  0  0999 V2000
  -19.7900   13.7260  -20.9450 C   0  0  0  0  0  0  0  0  0  0  0  0
  -20.9740   14.4450  -21.6000 C   0  0  0  0  0  0  0  0  0  0  0  0
  -22.2480   13.6190  -21.3260 C   0  0  0  0  0  0  0  0  0  0  0  0
  -21.1610   15.8200  -20.9640 C   0  0  0  0  0  0  0  0  0  0  0  0
  -20.6450   14.6060  -23.1300 C   0  0  0  0  0  0  0  0  0  0  0  0
  -19.3560   14.9780  -23.5310 C   0  0  0  0  0  0  0  0  0  0  0  0
  -19.0570   15.1180  -24.8920 C   0  0  0  0  0  0  0  0  0  0  0  0
  -20.0520   14.8700  -25.8430 C   0  0  0  0  0  0  0  0  0  0  0  0
  -19.7000   15.0300  -27.2730 N   0  0  0  0  0  0  0  0  0  0  0  0
  -19.7040   13.9200  -28.2350 C   0  0  0  0  0  0  0  0  0  0  0  0
  -18.6560   13.5500  -28.6370 O   0  0  0  0  0  0  0  0  0  0  0  0
  -21.0160   13.2570  -28.7130 C   0  0  0  0  0  0  0  0  0  0  0  0
  -21.2360   12.4930  -29.8440 C   0  0  0  0  0  0  0  0  0  0  0  0
  -22.5060   12.1070  -29.8390 N   0  0  0  0  0  0  0  0  0  0  0  0
  -23.0720   12.6090  -28.7440 C   0  0  0  0  0  0  0  0  0  0  0  0
  -22.1520   13.3090  -28.0510 N   0  0  0  0  0  0  0  0  0  0  0  0
  -19.5040   16.3700  -27.7410 C   0  0  0  0  0  0  0  0  0  0  0  0
  -20.5330   16.6410  -28.8780 C   0  0  0  0  0  0  0  0  0  0  0  0
  -20.2530   17.3270  -29.8280 O   0  0  0  0  0  0  0  0  0  0  0  0
  -21.8440   15.9800  -28.7640 N   0  0  0  0  0  0  0  0  0  0  0  0
  -22.8900   16.1220  -29.7470 C   0  0  0  0  0  0  0  0  0  0  0  0
  -23.1400   17.6200  -29.9030 C   0  0  0  0  0  0  0  0  0  0  0  0
  -24.1550   17.9170  -31.0040 C   0  0  0  0  0  0  0  0  0  0  0  0
  -23.6480   17.3880  -32.3140 C   0  0  0  0  0  0  0  0  0  0  0  0
  -23.2590   15.9260  -32.2660 C   0  0  0  0  0  0  0  0  0  0  0  0
  -22.3780   15.5270  -31.0710 C   0  0  0  0  0  0  0  0  0  0  0  0
  -19.7820   17.5000  -26.7950 C   0  0  0  0  0  0  0  0  0  0  0  0
  -21.0630   17.7330  -26.4410 C   0  0  0  0  0  0  0  0  0  0  0  0
  -21.3310   18.7360  -25.5430 C   0  0  0  0  0  0  0  0  0  0  0  0
  -20.2910   19.4810  -25.0200 C   0  0  0  0  0  0  0  0  0  0  0  0
  -19.0220   19.2280  -25.3790 N   0  0  0  0  0  0  0  0  0  0  0  0
  -18.7620   18.2520  -26.2780 C   0  0  0  0  0  0  0  0  0  0  0  0
  -21.3280   14.5080  -25.4570 C   0  0  0  0  0  0  0  0  0  0  0  0
  -21.6280   14.3680  -24.0900 C   0  0  0  0  0  0  0  0  0  0  0  0
  -19.8856   13.7841  -19.8507 H   0  0  0  0  0  0  0  0  0  0  0  0
  -19.7834   12.6712  -21.2570 H   0  0  0  0  0  0  0  0  0  0  0  0
  -18.8510   14.2066  -21.2570 H   0  0  0  0  0  0  0  0  0  0  0  0
  -22.3962   13.5229  -20.2403 H   0  0  0  0  0  0  0  0  0  0  0  0
  -23.1166   14.1262  -21.7712 H   0  0  0  0  0  0  0  0  0  0  0  0
  -22.1394   12.6190  -21.7712 H   0  0  0  0  0  0  0  0  0  0  0  0
  -21.1477   15.7221  -19.8684 H   0  0  0  0  0  0  0  0  0  0  0  0
  -20.3451   16.4854  -21.2826 H   0  0  0  0  0  0  0  0  0  0  0  0
  -22.1250   16.2433  -21.2826 H   0  0  0  0  0  0  0  0  0  0  0  0
  -18.5772   15.1605  -22.7760 H   0  0  0  0  0  0  0  0  0  0  0  0
  -18.0484   15.4204  -25.2102 H   0  0  0  0  0  0  0  0  0  0  0  0
  -20.4892   12.2478  -30.6135 H   0  0  0  0  0  0  0  0  0  0  0  0
  -22.9688   11.5254  -30.5521 H   0  0  0  0  0  0  0  0  0  0  0  0
  -24.1237   12.4740  -28.4511 H   0  0  0  0  0  0  0  0  0  0  0  0
  -18.4323   16.3784  -27.9888 H   0  0  0  0  0  0  0  0  0  0  0  0
  -21.9920   15.4850  -28.0780 H   0  0  0  0  0  0  0  0  0  0  0  0
  -23.8175   15.6073  -29.4556 H   0  0  0  0  0  0  0  0  0  0  0  0
  -23.5216   18.0177  -28.9511 H   0  0  0  0  0  0  0  0  0  0  0  0
  -22.1882   18.0971  -30.1796 H   0  0  0  0  0  0  0  0  0  0  0  0
  -25.1120   17.4328  -30.7597 H   0  0  0  0  0  0  0  0  0  0  0  0
  -24.3011   19.0045  -31.0817 H   0  0  0  0  0  0  0  0  0  0  0  0
  -24.4380   17.5133  -33.0691 H   0  0  0  0  0  0  0  0  0  0  0  0
  -22.7393   17.9562  -32.5620 H   0  0  0  0  0  0  0  0  0  0  0  0
  -24.1817   15.3286  -32.2242 H   0  0  0  0  0  0  0  0  0  0  0  0
  -22.6575   15.7382  -33.1676 H   0  0  0  0  0  0  0  0  0  0  0  0
  -22.3704   14.4302  -30.9870 H   0  0  0  0  0  0  0  0  0  0  0  0
  -21.3670   15.9218  -31.2501 H   0  0  0  0  0  0  0  0  0  0  0  0
  -21.8790   17.1293  -26.8649 H   0  0  0  0  0  0  0  0  0  0  0  0
  -22.3678   18.9457  -25.2413 H   0  0  0  0  0  0  0  0  0  0  0  0
  -20.5046   20.2880  -24.3036 H   0  0  0  0  0  0  0  0  0  0  0  0
  -17.7261   18.0616  -26.5952 H   0  0  0  0  0  0  0  0  0  0  0  0
  -22.1053   14.3302  -26.2147 H   0  0  0  0  0  0  0  0  0  0  0  0
  -22.6398   14.0702  -23.7776 H   0  0  0  0  0  0  0  0  0  0  0  0
  1  2  1  0
  2  3  1  0
  2  4  1  0
  2  5  1  0
  5  6  2  0
  6  7  1  0
  7  8  2  0
  8  9  1  0
  9 10  1  0
 10 11  2  0
 10 12  1  0
 12 13  2  0
 13 14  1  0
 14 15  1  0
 15 16  2  0
  9 17  1  0
 17 18  1  0
 18 19  2  0
 18 20  1  0
 20 21  1  0
 21 22  1  0
 22 23  1  0
 23 24  1  0
 24 25  1  0
 25 26  1  0
 17 27  1  0
 27 28  2  0
 28 29  1  0
 29 30  2  0
 30 31  1  0
 31 32  2  0
  8 33  1  0
 33 34  2  0
 34  5  1  0
 16 12  1  0
 26 21  1  0
 32 27  1  0
  1 35  1  0
  1 36  1  0
  1 37  1  0
  3 38  1  0
  3 39  1  0
  3 40  1  0
  4 41  1  0
  4 42  1  0
  4 43  1  0
  6 44  1  0
  7 45  1  0
 13 46  1  0
 14 47  1  0
 15 48  1  0
 17 49  1  0
 20 50  1  0
 21 51  1  0
 22 52  1  0
 22 53  1  0
 23 54  1  0
 23 55  1  0
 24 56  1  0
 24 57  1  0
 25 58  1  0
 25 59  1  0
 26 60  1  0
 26 61  1  0
 28 62  1  0
 29 63  1  0
 30 64  1  0
 32 65  1  0
 33 66  1  0
 34 67  1  0
M  END
>  <meeko>  (9) 
{"free_energy": -7.955, "intermolecular_energy": -10.341, "internal_energy": -3.787}

$$$$

