
     RDKit          3D

 67 70  0  0  0  0  0  0  0  0999 V2000
  -25.7500   16.3210  -31.8260 C   0  0  0  0  0  0  0  0  0  0  0  0
  -24.5350   17.1340  -32.2850 C   0  0  0  0  0  0  0  0  0  0  0  0
  -24.1120   16.6200  -33.6780 C   0  0  0  0  0  0  0  0  0  0  0  0
  -24.9190   18.6050  -32.4260 C   0  0  0  0  0  0  0  0  0  0  0  0
  -23.4170   16.9780  -31.1900 C   0  0  0  0  0  0  0  0  0  0  0  0
  -22.2550   16.2510  -31.4800 C   0  0  0  0  0  0  0  0  0  0  0  0
  -21.2540   16.1130  -30.5090 C   0  0  0  0  0  0  0  0  0  0  0  0
  -21.4200   16.7180  -29.2600 C   0  0  0  0  0  0  0  0  0  0  0  0
  -20.3410   16.5490  -28.2580 N   0  0  0  0  0  0  0  0  0  0  0  0
  -19.5340   17.6630  -27.7450 C   0  0  0  0  0  0  0  0  0  0  0  0
  -18.6070   18.0030  -28.3950 O   0  0  0  0  0  0  0  0  0  0  0  0
  -19.8680   18.3680  -26.4100 C   0  0  0  0  0  0  0  0  0  0  0  0
  -21.0840   18.8580  -25.9730 C   0  0  0  0  0  0  0  0  0  0  0  0
  -20.9130   19.3560  -24.7540 N   0  0  0  0  0  0  0  0  0  0  0  0
  -19.6330   19.1880  -24.4300 C   0  0  0  0  0  0  0  0  0  0  0  0
  -18.9960   18.5740  -25.4470 N   0  0  0  0  0  0  0  0  0  0  0  0
  -20.2100   15.2500  -27.6670 C   0  0  0  0  0  0  0  0  0  0  0  0
  -20.5550   15.3700  -26.1540 C   0  0  0  0  0  0  0  0  0  0  0  0
  -21.5980   15.8450  -25.7830 O   0  0  0  0  0  0  0  0  0  0  0  0
  -19.5720   14.8290  -25.2000 N   0  0  0  0  0  0  0  0  0  0  0  0
  -19.7610   14.8530  -23.7700 C   0  0  0  0  0  0  0  0  0  0  0  0
  -20.8220   13.8030  -23.4530 C   0  0  0  0  0  0  0  0  0  0  0  0
  -21.0380   13.6460  -21.9490 C   0  0  0  0  0  0  0  0  0  0  0  0
  -19.7540   13.2250  -21.2970 C   0  0  0  0  0  0  0  0  0  0  0  0
  -18.5850   14.1320  -21.6210 C   0  0  0  0  0  0  0  0  0  0  0  0
  -18.4230   14.4740  -23.1110 C   0  0  0  0  0  0  0  0  0  0  0  0
  -21.1480   14.1680  -28.1150 C   0  0  0  0  0  0  0  0  0  0  0  0
  -20.7840   13.4090  -29.1700 C   0  0  0  0  0  0  0  0  0  0  0  0
  -21.6100   12.3870  -29.5670 C   0  0  0  0  0  0  0  0  0  0  0  0
  -22.7880   12.1550  -28.8830 C   0  0  0  0  0  0  0  0  0  0  0  0
  -23.1280   12.9170  -27.8310 N   0  0  0  0  0  0  0  0  0  0  0  0
  -22.3220   13.9350  -27.4530 C   0  0  0  0  0  0  0  0  0  0  0  0
  -22.5650   17.4320  -28.9630 C   0  0  0  0  0  0  0  0  0  0  0  0
  -23.5700   17.5710  -29.9370 C   0  0  0  0  0  0  0  0  0  0  0  0
  -25.7825   16.2992  -30.7267 H   0  0  0  0  0  0  0  0  0  0  0  0
  -26.6693   16.7865  -32.2109 H   0  0  0  0  0  0  0  0  0  0  0  0
  -25.6704   15.2936  -32.2109 H   0  0  0  0  0  0  0  0  0  0  0  0
  -23.4169   15.7754  -33.5617 H   0  0  0  0  0  0  0  0  0  0  0  0
  -25.0023   16.2885  -34.2324 H   0  0  0  0  0  0  0  0  0  0  0  0
  -23.6153   17.4299  -34.2324 H   0  0  0  0  0  0  0  0  0  0  0  0
  -25.0354   19.0509  -31.4272 H   0  0  0  0  0  0  0  0  0  0  0  0
  -24.1301   19.1388  -32.9762 H   0  0  0  0  0  0  0  0  0  0  0  0
  -25.8681   18.6851  -32.9762 H   0  0  0  0  0  0  0  0  0  0  0  0
  -22.1284   15.7885  -32.4700 H   0  0  0  0  0  0  0  0  0  0  0  0
  -20.3451   15.5333  -30.7280 H   0  0  0  0  0  0  0  0  0  0  0  0
  -22.0285   18.8388  -26.5365 H   0  0  0  0  0  0  0  0  0  0  0  0
  -21.6380   19.7923  -24.1668 H   0  0  0  0  0  0  0  0  0  0  0  0
  -19.1688   19.5005  -23.4830 H   0  0  0  0  0  0  0  0  0  0  0  0
  -19.1868   14.9638  -27.9518 H   0  0  0  0  0  0  0  0  0  0  0  0
  -18.8500   14.4820  -25.5110 H   0  0  0  0  0  0  0  0  0  0  0  0
  -20.0777   15.8398  -23.4013 H   0  0  0  0  0  0  0  0  0  0  0  0
  -21.7715   14.1053  -23.9188 H   0  0  0  0  0  0  0  0  0  0  0  0
  -20.4748   12.8376  -23.8497 H   0  0  0  0  0  0  0  0  0  0  0  0
  -21.3666   14.6060  -21.5242 H   0  0  0  0  0  0  0  0  0  0  0  0
  -21.8072   12.8807  -21.7685 H   0  0  0  0  0  0  0  0  0  0  0  0
  -19.9015   13.2233  -20.2069 H   0  0  0  0  0  0  0  0  0  0  0  0
  -19.5060   12.2266  -21.6865 H   0  0  0  0  0  0  0  0  0  0  0  0
  -18.7192   15.0730  -21.0673 H   0  0  0  0  0  0  0  0  0  0  0  0
  -17.6782   13.5810  -21.3312 H   0  0  0  0  0  0  0  0  0  0  0  0
  -17.7287   15.3218  -23.2063 H   0  0  0  0  0  0  0  0  0  0  0  0
  -18.0364   13.5800  -23.6222 H   0  0  0  0  0  0  0  0  0  0  0  0
  -19.8418   13.6059  -29.7025 H   0  0  0  0  0  0  0  0  0  0  0  0
  -21.3356   11.7560  -30.4252 H   0  0  0  0  0  0  0  0  0  0  0  0
  -23.4528   11.3392  -29.2030 H   0  0  0  0  0  0  0  0  0  0  0  0
  -22.6119   14.5786  -26.6093 H   0  0  0  0  0  0  0  0  0  0  0  0
  -22.6898   17.8892  -27.9703 H   0  0  0  0  0  0  0  0  0  0  0  0
  -24.4783   18.1485  -29.7101 H   0  0  0  0  0  0  0  0  0  0  0  0
  1  2  1  0
  2  3  1  0
  2  4  1  0
  2  5  1  0
  5  6  2  0
  6  7  1  0
  7  8  2  0
  8  9  1  0
  9 10  1  0
 10 11  2  0
 10 12  1  0
 12 13  2  0
 13 14  1  0
 14 15  1  0
 15 16  2  0
  9 17  1  0
 17 18  1  0
 18 19  2  0
 18 20  1  0
 20 21  1  0
 21 22  1  0
 22 23  1  0
 23 24  1  0
 24 25  1  0
 25 26  1  0
 17 27  1  0
 27 28  2  0
 28 29  1  0
 29 30  2  0
 30 31  1  0
 31 32  2  0
  8 33  1  0
 33 34  2  0
 34  5  1  0
 16 12  1  0
 26 21  1  0
 32 27  1  0
  1 35  1  0
  1 36  1  0
  1 37  1  0
  3 38  1  0
  3 39  1  0
  3 40  1  0
  4 41  1  0
  4 42  1  0
  4 43  1  0
  6 44  1  0
  7 45  1  0
 13 46  1  0
 14 47  1  0
 15 48  1  0
 17 49  1  0
 20 50  1  0
 21 51  1  0
 22 52  1  0
 22 53  1  0
 23 54  1  0
 23 55  1  0
 24 56  1  0
 24 57  1  0
 25 58  1  0
 25 59  1  0
 26 60  1  0
 26 61  1  0
 28 62  1  0
 29 63  1  0
 30 64  1  0
 32 65  1  0
 33 66  1  0
 34 67  1  0
M  END
>  <meeko>  (1) 
{"free_energy": -9.29, "intermolecular_energy": -11.676, "internal_energy": -2.599}

$$$$

     RDKit          3D

 67 70  0  0  0  0  0  0  0  0999 V2000
  -16.3780   20.7960  -27.3190 C   0  0  0  0  0  0  0  0  0  0  0  0
  -17.8370   21.2180  -27.1210 C   0  0  0  0  0  0  0  0  0  0  0  0
  -17.9200   22.0750  -25.8400 C   0  0  0  0  0  0  0  0  0  0  0  0
  -18.2900   22.0840  -28.2930 C   0  0  0  0  0  0  0  0  0  0  0  0
  -18.7070   19.9090  -27.0590 C   0  0  0  0  0  0  0  0  0  0  0  0
  -19.0160   19.3360  -25.8190 C   0  0  0  0  0  0  0  0  0  0  0  0
  -19.7930   18.1720  -25.7580 C   0  0  0  0  0  0  0  0  0  0  0  0
  -20.2680   17.6000  -26.9420 C   0  0  0  0  0  0  0  0  0  0  0  0
  -21.0870   16.3690  -26.8390 N   0  0  0  0  0  0  0  0  0  0  0  0
  -22.4430   16.3450  -26.2760 C   0  0  0  0  0  0  0  0  0  0  0  0
  -23.2980   15.8830  -26.9480 O   0  0  0  0  0  0  0  0  0  0  0  0
  -22.7530   16.9020  -24.8680 C   0  0  0  0  0  0  0  0  0  0  0  0
  -23.2390   18.1490  -24.5200 C   0  0  0  0  0  0  0  0  0  0  0  0
  -23.3810   18.1810  -23.2000 N   0  0  0  0  0  0  0  0  0  0  0  0
  -22.9980   16.9980  -22.7280 C   0  0  0  0  0  0  0  0  0  0  0  0
  -22.6190   16.2120  -23.7560 N   0  0  0  0  0  0  0  0  0  0  0  0
  -20.5620   15.1940  -27.4700 C   0  0  0  0  0  0  0  0  0  0  0  0
  -20.0890   14.2160  -26.3540 C   0  0  0  0  0  0  0  0  0  0  0  0
  -19.4100   13.2540  -26.6080 O   0  0  0  0  0  0  0  0  0  0  0  0
  -20.4660   14.5500  -24.9700 N   0  0  0  0  0  0  0  0  0  0  0  0
  -20.0860   13.7490  -23.8320 C   0  0  0  0  0  0  0  0  0  0  0  0
  -18.7600   14.3110  -23.3260 C   0  0  0  0  0  0  0  0  0  0  0  0
  -18.2990   13.6190  -22.0460 C   0  0  0  0  0  0  0  0  0  0  0  0
  -19.3280   13.8090  -20.9700 C   0  0  0  0  0  0  0  0  0  0  0  0
  -20.7220   13.3860  -21.3860 C   0  0  0  0  0  0  0  0  0  0  0  0
  -21.1770   13.9080  -22.7580 C   0  0  0  0  0  0  0  0  0  0  0  0
  -21.5020   14.3330  -28.2600 C   0  0  0  0  0  0  0  0  0  0  0  0
  -21.7100   14.6420  -29.5570 C   0  0  0  0  0  0  0  0  0  0  0  0
  -22.5330   13.8400  -30.3060 C   0  0  0  0  0  0  0  0  0  0  0  0
  -23.1280   12.7370  -29.7240 C   0  0  0  0  0  0  0  0  0  0  0  0
  -22.9010   12.4410  -28.4340 N   0  0  0  0  0  0  0  0  0  0  0  0
  -22.1040   13.2430  -27.6920 C   0  0  0  0  0  0  0  0  0  0  0  0
  -19.9640   18.1550  -28.1700 C   0  0  0  0  0  0  0  0  0  0  0  0
  -19.1830   19.3230  -28.2310 C   0  0  0  0  0  0  0  0  0  0  0  0
  -15.8999   20.6577  -26.3380 H   0  0  0  0  0  0  0  0  0  0  0  0
  -16.3427   19.8508  -27.8806 H   0  0  0  0  0  0  0  0  0  0  0  0
  -15.8436   21.5764  -27.8806 H   0  0  0  0  0  0  0  0  0  0  0  0
  -17.8567   21.4219  -24.9572 H   0  0  0  0  0  0  0  0  0  0  0  0
  -17.0872   22.7935  -25.8249 H   0  0  0  0  0  0  0  0  0  0  0  0
  -18.8752   22.6204  -25.8249 H   0  0  0  0  0  0  0  0  0  0  0  0
  -18.7680   22.9978  -27.9104 H   0  0  0  0  0  0  0  0  0  0  0  0
  -17.4184   22.3555  -28.9067 H   0  0  0  0  0  0  0  0  0  0  0  0
  -19.0101   21.5229  -28.9067 H   0  0  0  0  0  0  0  0  0  0  0  0
  -18.6482   19.8004  -24.8921 H   0  0  0  0  0  0  0  0  0  0  0  0
  -20.0274   17.7119  -24.7867 H   0  0  0  0  0  0  0  0  0  0  0  0
  -23.4679   18.9705  -25.2148 H   0  0  0  0  0  0  0  0  0  0  0  0
  -23.7249   18.9766  -22.6435 H   0  0  0  0  0  0  0  0  0  0  0  0
  -22.9915   16.7069  -21.6672 H   0  0  0  0  0  0  0  0  0  0  0  0
  -19.8105   15.6107  -28.1567 H   0  0  0  0  0  0  0  0  0  0  0  0
  -20.9360   15.2560  -24.8340 H   0  0  0  0  0  0  0  0  0  0  0  0
  -19.9785   12.6831  -24.0816 H   0  0  0  0  0  0  0  0  0  0  0  0
  -17.9941   14.1687  -24.1026 H   0  0  0  0  0  0  0  0  0  0  0  0
  -18.9055   15.3782  -23.1027 H   0  0  0  0  0  0  0  0  0  0  0  0
  -18.1657   12.5443  -22.2389 H   0  0  0  0  0  0  0  0  0  0  0  0
  -17.3443   14.0565  -21.7187 H   0  0  0  0  0  0  0  0  0  0  0  0
  -19.0302   13.2136  -20.0943 H   0  0  0  0  0  0  0  0  0  0  0  0
  -19.3691   14.8856  -20.7479 H   0  0  0  0  0  0  0  0  0  0  0  0
  -20.7514   12.2867  -21.4123 H   0  0  0  0  0  0  0  0  0  0  0  0
  -21.4094   13.8238  -20.6472 H   0  0  0  0  0  0  0  0  0  0  0  0
  -22.0686   13.3459  -23.0729 H   0  0  0  0  0  0  0  0  0  0  0  0
  -21.3956   14.9811  -22.6553 H   0  0  0  0  0  0  0  0  0  0  0  0
  -21.2275   15.5226  -30.0062 H   0  0  0  0  0  0  0  0  0  0  0  0
  -22.7184   14.0738  -31.3648 H   0  0  0  0  0  0  0  0  0  0  0  0
  -23.7928   12.0964  -30.3221 H   0  0  0  0  0  0  0  0  0  0  0  0
  -21.9390   13.0184  -26.6279 H   0  0  0  0  0  0  0  0  0  0  0  0
  -20.3308   17.6860  -29.0949 H   0  0  0  0  0  0  0  0  0  0  0  0
  -18.9472   19.7752  -29.2056 H   0  0  0  0  0  0  0  0  0  0  0  0
  1  2  1  0
  2  3  1  0
  2  4  1  0
  2  5  1  0
  5  6  2  0
  6  7  1  0
  7  8  2  0
  8  9  1  0
  9 10  1  0
 10 11  2  0
 10 12  1  0
 12 13  2  0
 13 14  1  0
 14 15  1  0
 15 16  2  0
  9 17  1  0
 17 18  1  0
 18 19  2  0
 18 20  1  0
 20 21  1  0
 21 22  1  0
 22 23  1  0
 23 24  1  0
 24 25  1  0
 25 26  1  0
 17 27  1  0
 27 28  2  0
 28 29  1  0
 29 30  2  0
 30 31  1  0
 31 32  2  0
  8 33  1  0
 33 34  2  0
 34  5  1  0
 16 12  1  0
 26 21  1  0
 32 27  1  0
  1 35  1  0
  1 36  1  0
  1 37  1  0
  3 38  1  0
  3 39  1  0
  3 40  1  0
  4 41  1  0
  4 42  1  0
  4 43  1  0
  6 44  1  0
  7 45  1  0
 13 46  1  0
 14 47  1  0
 15 48  1  0
 17 49  1  0
 20 50  1  0
 21 51  1  0
 22 52  1  0
 22 53  1  0
 23 54  1  0
 23 55  1  0
 24 56  1  0
 24 57  1  0
 25 58  1  0
 25 59  1  0
 26 60  1  0
 26 61  1  0
 28 62  1  0
 29 63  1  0
 30 64  1  0
 32 65  1  0
 33 66  1  0
 34 67  1  0
M  END
>  <meeko>  (2) 
{"free_energy": -9.289, "intermolecular_energy": -11.675, "internal_energy": -3.328}

$$$$

     RDKit          3D

 67 70  0  0  0  0  0  0  0  0999 V2000
  -21.5070   13.3230  -21.5490 C   0  0  0  0  0  0  0  0  0  0  0  0
  -20.4840   14.4310  -21.8170 C   0  0  0  0  0  0  0  0  0  0  0  0
  -20.8770   15.6610  -20.9710 C   0  0  0  0  0  0  0  0  0  0  0  0
  -19.0980   13.9780  -21.3680 C   0  0  0  0  0  0  0  0  0  0  0  0
  -20.4780   14.7090  -23.3660 C   0  0  0  0  0  0  0  0  0  0  0  0
  -20.0860   13.7000  -24.2530 C   0  0  0  0  0  0  0  0  0  0  0  0
  -20.0830   13.9410  -25.6330 C   0  0  0  0  0  0  0  0  0  0  0  0
  -20.4890   15.1900  -26.1130 C   0  0  0  0  0  0  0  0  0  0  0  0
  -20.4720   15.4090  -27.5790 N   0  0  0  0  0  0  0  0  0  0  0  0
  -20.2370   14.3360  -28.5540 C   0  0  0  0  0  0  0  0  0  0  0  0
  -19.1800   14.3070  -29.0810 O   0  0  0  0  0  0  0  0  0  0  0  0
  -21.3210   13.2850  -28.8880 C   0  0  0  0  0  0  0  0  0  0  0  0
  -22.4800   12.9890  -28.1960 C   0  0  0  0  0  0  0  0  0  0  0  0
  -23.1250   12.0390  -28.8620 N   0  0  0  0  0  0  0  0  0  0  0  0
  -22.4010   11.7430  -29.9380 C   0  0  0  0  0  0  0  0  0  0  0  0
  -21.2970   12.5160  -29.9550 N   0  0  0  0  0  0  0  0  0  0  0  0
  -20.8600   16.7100  -28.0380 C   0  0  0  0  0  0  0  0  0  0  0  0
  -19.5680   17.5460  -28.2740 C   0  0  0  0  0  0  0  0  0  0  0  0
  -18.6280   17.0940  -28.8780 O   0  0  0  0  0  0  0  0  0  0  0  0
  -19.5670   18.9300  -27.7720 N   0  0  0  0  0  0  0  0  0  0  0  0
  -18.4500   19.8290  -27.9310 C   0  0  0  0  0  0  0  0  0  0  0  0
  -19.0250   21.1600  -28.4070 C   0  0  0  0  0  0  0  0  0  0  0  0
  -17.9520   22.2410  -28.5080 C   0  0  0  0  0  0  0  0  0  0  0  0
  -17.3250   22.4570  -27.1620 C   0  0  0  0  0  0  0  0  0  0  0  0
  -16.8050   21.1850  -26.5260 C   0  0  0  0  0  0  0  0  0  0  0  0
  -17.7810   19.9990  -26.5550 C   0  0  0  0  0  0  0  0  0  0  0  0
  -21.5470   16.8170  -29.3670 C   0  0  0  0  0  0  0  0  0  0  0  0
  -22.6610   16.0820  -29.5680 C   0  0  0  0  0  0  0  0  0  0  0  0
  -23.3260   16.2000  -30.7630 C   0  0  0  0  0  0  0  0  0  0  0  0
  -22.8480   17.0650  -31.7290 C   0  0  0  0  0  0  0  0  0  0  0  0
  -21.7420   17.7940  -31.5060 N   0  0  0  0  0  0  0  0  0  0  0  0
  -21.0780   17.6620  -30.3360 C   0  0  0  0  0  0  0  0  0  0  0  0
  -20.8720   16.1940  -25.2450 C   0  0  0  0  0  0  0  0  0  0  0  0
  -20.8740   15.9520  -23.8600 C   0  0  0  0  0  0  0  0  0  0  0  0
  -21.6288   13.1911  -20.4638 H   0  0  0  0  0  0  0  0  0  0  0  0
  -22.4733   13.6004  -21.9954 H   0  0  0  0  0  0  0  0  0  0  0  0
  -21.1536   12.3818  -21.9954 H   0  0  0  0  0  0  0  0  0  0  0  0
  -20.7974   15.4118  -19.9026 H   0  0  0  0  0  0  0  0  0  0  0  0
  -20.2013   16.4972  -21.2038 H   0  0  0  0  0  0  0  0  0  0  0  0
  -21.9124   15.9505  -21.2038 H   0  0  0  0  0  0  0  0  0  0  0  0
  -19.0550   13.9640  -20.2689 H   0  0  0  0  0  0  0  0  0  0  0  0
  -18.8989   12.9680  -21.7557 H   0  0  0  0  0  0  0  0  0  0  0  0
  -18.3408   14.6754  -21.7557 H   0  0  0  0  0  0  0  0  0  0  0  0
  -19.7800   12.7168  -23.8662 H   0  0  0  0  0  0  0  0  0  0  0  0
  -19.7641   13.1546  -26.3329 H   0  0  0  0  0  0  0  0  0  0  0  0
  -22.8102   13.4584  -27.2576 H   0  0  0  0  0  0  0  0  0  0  0  0
  -24.0222   11.6095  -28.5945 H   0  0  0  0  0  0  0  0  0  0  0  0
  -22.6619   10.9875  -30.6937 H   0  0  0  0  0  0  0  0  0  0  0  0
  -21.5608   17.0366  -27.2556 H   0  0  0  0  0  0  0  0  0  0  0  0
  -20.2670   19.2160  -27.3630 H   0  0  0  0  0  0  0  0  0  0  0  0
  -17.7058   19.4556  -28.6499 H   0  0  0  0  0  0  0  0  0  0  0  0
  -19.4796   21.0166  -29.3984 H   0  0  0  0  0  0  0  0  0  0  0  0
  -19.7730   21.4904  -27.6713 H   0  0  0  0  0  0  0  0  0  0  0  0
  -17.1799   21.9243  -29.2247 H   0  0  0  0  0  0  0  0  0  0  0  0
  -18.4112   23.1798  -28.8514 H   0  0  0  0  0  0  0  0  0  0  0  0
  -16.4844   23.1570  -27.2779 H   0  0  0  0  0  0  0  0  0  0  0  0
  -18.1093   22.8523  -26.4997 H   0  0  0  0  0  0  0  0  0  0  0  0
  -15.8897   20.8868  -27.0582 H   0  0  0  0  0  0  0  0  0  0  0  0
  -16.6363   21.4186  -25.4644 H   0  0  0  0  0  0  0  0  0  0  0  0
  -17.2278   19.0792  -26.3141 H   0  0  0  0  0  0  0  0  0  0  0  0
  -18.5726   20.1954  -25.8169 H   0  0  0  0  0  0  0  0  0  0  0  0
  -23.0297   15.4001  -28.7876 H   0  0  0  0  0  0  0  0  0  0  0  0
  -24.2346   15.6091  -30.9508 H   0  0  0  0  0  0  0  0  0  0  0  0
  -23.3777   17.1573  -32.6886 H   0  0  0  0  0  0  0  0  0  0  0  0
  -20.1563   18.2365  -30.1619 H   0  0  0  0  0  0  0  0  0  0  0  0
  -21.1737   17.1772  -25.6352 H   0  0  0  0  0  0  0  0  0  0  0  0
  -21.1884   16.7443  -23.1647 H   0  0  0  0  0  0  0  0  0  0  0  0
  1  2  1  0
  2  3  1  0
  2  4  1  0
  2  5  1  0
  5  6  2  0
  6  7  1  0
  7  8  2  0
  8  9  1  0
  9 10  1  0
 10 11  2  0
 10 12  1  0
 12 13  2  0
 13 14  1  0
 14 15  1  0
 15 16  2  0
  9 17  1  0
 17 18  1  0
 18 19  2  0
 18 20  1  0
 20 21  1  0
 21 22  1  0
 22 23  1  0
 23 24  1  0
 24 25  1  0
 25 26  1  0
 17 27  1  0
 27 28  2  0
 28 29  1  0
 29 30  2  0
 30 31  1  0
 31 32  2  0
  8 33  1  0
 33 34  2  0
 34  5  1  0
 16 12  1  0
 26 21  1  0
 32 27  1  0
  1 35  1  0
  1 36  1  0
  1 37  1  0
  3 38  1  0
  3 39  1  0
  3 40  1  0
  4 41  1  0
  4 42  1  0
  4 43  1  0
  6 44  1  0
  7 45  1  0
 13 46  1  0
 14 47  1  0
 15 48  1  0
 17 49  1  0
 20 50  1  0
 21 51  1  0
 22 52  1  0
 22 53  1  0
 23 54  1  0
 23 55  1  0
 24 56  1  0
 24 57  1  0
 25 58  1  0
 25 59  1  0
 26 60  1  0
 26 61  1  0
 28 62  1  0
 29 63  1  0
 30 64  1  0
 32 65  1  0
 33 66  1  0
 34 67  1  0
M  END
>  <meeko>  (3) 
{"free_energy": -9.271, "intermolecular_energy": -11.658, "internal_energy": -2.453}

$$$$

     RDKit          3D

 67 70  0  0  0  0  0  0  0  0999 V2000
  -16.3520   20.7850  -26.5710 C   0  0  0  0  0  0  0  0  0  0  0  0
  -17.8050   21.1850  -26.8490 C   0  0  0  0  0  0  0  0  0  0  0  0
  -18.2350   22.2070  -25.7740 C   0  0  0  0  0  0  0  0  0  0  0  0
  -17.9040   21.8680  -28.2100 C   0  0  0  0  0  0  0  0  0  0  0  0
  -18.6690   19.8700  -26.8480 C   0  0  0  0  0  0  0  0  0  0  0  0
  -19.3420   19.4800  -25.6830 C   0  0  0  0  0  0  0  0  0  0  0  0
  -20.1160   18.3130  -25.6790 C   0  0  0  0  0  0  0  0  0  0  0  0
  -20.2210   17.5530  -26.8470 C   0  0  0  0  0  0  0  0  0  0  0  0
  -21.0470   16.3230  -26.8050 N   0  0  0  0  0  0  0  0  0  0  0  0
  -22.4170   16.2880  -26.2780 C   0  0  0  0  0  0  0  0  0  0  0  0
  -22.7230   15.3500  -25.6290 O   0  0  0  0  0  0  0  0  0  0  0  0
  -23.4290   17.4240  -26.5570 C   0  0  0  0  0  0  0  0  0  0  0  0
  -23.5150   18.2520  -27.6610 C   0  0  0  0  0  0  0  0  0  0  0  0
  -24.5540   19.0600  -27.4880 N   0  0  0  0  0  0  0  0  0  0  0  0
  -25.1060   18.7570  -26.3160 C   0  0  0  0  0  0  0  0  0  0  0  0
  -24.4170   17.7450  -25.7500 N   0  0  0  0  0  0  0  0  0  0  0  0
  -20.5110   15.1660  -27.4590 C   0  0  0  0  0  0  0  0  0  0  0  0
  -20.0430   14.1640  -26.3630 C   0  0  0  0  0  0  0  0  0  0  0  0
  -19.4590   13.1490  -26.6480 O   0  0  0  0  0  0  0  0  0  0  0  0
  -20.3020   14.5370  -24.9620 N   0  0  0  0  0  0  0  0  0  0  0  0
  -19.9110   13.7190  -23.8410 C   0  0  0  0  0  0  0  0  0  0  0  0
  -18.6290   14.3290  -23.2810 C   0  0  0  0  0  0  0  0  0  0  0  0
  -18.1650   13.6180  -22.0110 C   0  0  0  0  0  0  0  0  0  0  0  0
  -19.2310   13.7210  -20.9590 C   0  0  0  0  0  0  0  0  0  0  0  0
  -20.5900   13.2430  -21.4250 C   0  0  0  0  0  0  0  0  0  0  0  0
  -21.0350   13.7880  -22.7920 C   0  0  0  0  0  0  0  0  0  0  0  0
  -21.4400   14.3200  -28.2780 C   0  0  0  0  0  0  0  0  0  0  0  0
  -21.5620   14.5990  -29.5930 C   0  0  0  0  0  0  0  0  0  0  0  0
  -22.3750   13.8080  -30.3650 C   0  0  0  0  0  0  0  0  0  0  0  0
  -23.0470   12.7480  -29.7880 C   0  0  0  0  0  0  0  0  0  0  0  0
  -22.9050   12.4810  -28.4790 N   0  0  0  0  0  0  0  0  0  0  0  0
  -22.1190   13.2720  -27.7160 C   0  0  0  0  0  0  0  0  0  0  0  0
  -19.5550   17.9260  -27.9990 C   0  0  0  0  0  0  0  0  0  0  0  0
  -18.7780   19.0980  -28.0040 C   0  0  0  0  0  0  0  0  0  0  0  0
  -16.1857   20.7392  -25.4846 H   0  0  0  0  0  0  0  0  0  0  0  0
  -16.1520   19.7984  -27.0144 H   0  0  0  0  0  0  0  0  0  0  0  0
  -15.6753   21.5303  -27.0144 H   0  0  0  0  0  0  0  0  0  0  0  0
  -18.0571   21.7842  -24.7742 H   0  0  0  0  0  0  0  0  0  0  0  0
  -17.6492   23.1307  -25.8911 H   0  0  0  0  0  0  0  0  0  0  0  0
  -19.3049   22.4340  -25.8911 H   0  0  0  0  0  0  0  0  0  0  0  0
  -18.0605   22.9475  -28.0680 H   0  0  0  0  0  0  0  0  0  0  0  0
  -16.9726   21.7033  -28.7715 H   0  0  0  0  0  0  0  0  0  0  0  0
  -18.7503   21.4456  -28.7715 H   0  0  0  0  0  0  0  0  0  0  0  0
  -19.2625   20.0904  -24.7714 H   0  0  0  0  0  0  0  0  0  0  0  0
  -20.6374   17.9969  -24.7634 H   0  0  0  0  0  0  0  0  0  0  0  0
  -22.8408   18.2428  -28.5301 H   0  0  0  0  0  0  0  0  0  0  0  0
  -24.8744   19.7886  -28.1418 H   0  0  0  0  0  0  0  0  0  0  0  0
  -25.9848   19.2530  -25.8781 H   0  0  0  0  0  0  0  0  0  0  0  0
  -19.7555   15.6025  -28.1288 H   0  0  0  0  0  0  0  0  0  0  0  0
  -20.7060   15.2790  -24.8060 H   0  0  0  0  0  0  0  0  0  0  0  0
  -19.7434   12.6689  -24.1223 H   0  0  0  0  0  0  0  0  0  0  0  0
  -17.8374   14.2517  -24.0408 H   0  0  0  0  0  0  0  0  0  0  0  0
  -18.8349   15.3792  -23.0269 H   0  0  0  0  0  0  0  0  0  0  0  0
  -17.9720   12.5583  -22.2343 H   0  0  0  0  0  0  0  0  0  0  0  0
  -17.2421   14.0906  -21.6438 H   0  0  0  0  0  0  0  0  0  0  0  0
  -18.9262   13.1133  -20.0943 H   0  0  0  0  0  0  0  0  0  0  0  0
  -19.3329   14.7866  -20.7060 H   0  0  0  0  0  0  0  0  0  0  0  0
  -20.5630   12.1451  -21.4874 H   0  0  0  0  0  0  0  0  0  0  0  0
  -21.3176   13.6201  -20.6912 H   0  0  0  0  0  0  0  0  0  0  0  0
  -21.8892   13.1939  -23.1489 H   0  0  0  0  0  0  0  0  0  0  0  0
  -21.3087   14.8452  -22.6604 H   0  0  0  0  0  0  0  0  0  0  0  0
  -21.0190   15.4458  -30.0380 H   0  0  0  0  0  0  0  0  0  0  0  0
  -22.4911   14.0170  -31.4387 H   0  0  0  0  0  0  0  0  0  0  0  0
  -23.7037   12.1174  -30.4053 H   0  0  0  0  0  0  0  0  0  0  0  0
  -22.0241   13.0732  -26.6383 H   0  0  0  0  0  0  0  0  0  0  0  0
  -19.6323   17.3096  -28.9068 H   0  0  0  0  0  0  0  0  0  0  0  0
  -18.2553   19.4063  -28.9214 H   0  0  0  0  0  0  0  0  0  0  0  0
  1  2  1  0
  2  3  1  0
  2  4  1  0
  2  5  1  0
  5  6  2  0
  6  7  1  0
  7  8  2  0
  8  9  1  0
  9 10  1  0
 10 11  2  0
 10 12  1  0
 12 13  2  0
 13 14  1  0
 14 15  1  0
 15 16  2  0
  9 17  1  0
 17 18  1  0
 18 19  2  0
 18 20  1  0
 20 21  1  0
 21 22  1  0
 22 23  1  0
 23 24  1  0
 24 25  1  0
 25 26  1  0
 17 27  1  0
 27 28  2  0
 28 29  1  0
 29 30  2  0
 30 31  1  0
 31 32  2  0
  8 33  1  0
 33 34  2  0
 34  5  1  0
 16 12  1  0
 26 21  1  0
 32 27  1  0
  1 35  1  0
  1 36  1  0
  1 37  1  0
  3 38  1  0
  3 39  1  0
  3 40  1  0
  4 41  1  0
  4 42  1  0
  4 43  1  0
  6 44  1  0
  7 45  1  0
 13 46  1  0
 14 47  1  0
 15 48  1  0
 17 49  1  0
 20 50  1  0
 21 51  1  0
 22 52  1  0
 22 53  1  0
 23 54  1  0
 23 55  1  0
 24 56  1  0
 24 57  1  0
 25 58  1  0
 25 59  1  0
 26 60  1  0
 26 61  1  0
 28 62  1  0
 29 63  1  0
 30 64  1  0
 32 65  1  0
 33 66  1  0
 34 67  1  0
M  END
>  <meeko>  (4) 
{"free_energy": -9.09, "intermolecular_energy": -11.476, "internal_energy": -3.213}

$$$$

     RDKit          3D

 67 70  0  0  0  0  0  0  0  0999 V2000
  -16.2040   21.1170  -26.1970 C   0  0  0  0  0  0  0  0  0  0  0  0
  -17.4770   21.5960  -26.9010 C   0  0  0  0  0  0  0  0  0  0  0  0
  -18.1410   22.6700  -26.0130 C   0  0  0  0  0  0  0  0  0  0  0  0
  -17.1190   22.2470  -28.2340 C   0  0  0  0  0  0  0  0  0  0  0  0
  -18.3860   20.3360  -27.1500 C   0  0  0  0  0  0  0  0  0  0  0  0
  -19.7000   20.3190  -26.6670 C   0  0  0  0  0  0  0  0  0  0  0  0
  -20.5150   19.2010  -26.8900 C   0  0  0  0  0  0  0  0  0  0  0  0
  -20.0090   18.1150  -27.6100 C   0  0  0  0  0  0  0  0  0  0  0  0
  -20.8980   16.9490  -27.8250 N   0  0  0  0  0  0  0  0  0  0  0  0
  -22.2440   17.0560  -28.4030 C   0  0  0  0  0  0  0  0  0  0  0  0
  -23.1260   17.3420  -27.6700 O   0  0  0  0  0  0  0  0  0  0  0  0
  -22.5110   16.8040  -29.9050 C   0  0  0  0  0  0  0  0  0  0  0  0
  -21.9340   17.4200  -31.0000 C   0  0  0  0  0  0  0  0  0  0  0  0
  -22.4410   16.8690  -32.0960 N   0  0  0  0  0  0  0  0  0  0  0  0
  -23.3100   15.9380  -31.7100 C   0  0  0  0  0  0  0  0  0  0  0  0
  -23.3450   15.8950  -30.3630 N   0  0  0  0  0  0  0  0  0  0  0  0
  -20.3290   15.6550  -27.5930 C   0  0  0  0  0  0  0  0  0  0  0  0
  -20.2970   15.4080  -26.0560 C   0  0  0  0  0  0  0  0  0  0  0  0
  -20.6800   16.2440  -25.2780 O   0  0  0  0  0  0  0  0  0  0  0  0
  -19.8240   14.0900  -25.6010 N   0  0  0  0  0  0  0  0  0  0  0  0
  -19.7540   13.7110  -24.2110 C   0  0  0  0  0  0  0  0  0  0  0  0
  -18.6860   14.5940  -23.5720 C   0  0  0  0  0  0  0  0  0  0  0  0
  -18.5880   14.3710  -22.0640 C   0  0  0  0  0  0  0  0  0  0  0  0
  -19.9070   14.6920  -21.4210 C   0  0  0  0  0  0  0  0  0  0  0  0
  -21.0760   13.9550  -22.0400 C   0  0  0  0  0  0  0  0  0  0  0  0
  -21.1270   13.9920  -23.5760 C   0  0  0  0  0  0  0  0  0  0  0  0
  -21.0780   14.4520  -28.0850 C   0  0  0  0  0  0  0  0  0  0  0  0
  -20.5950   13.7990  -29.1630 C   0  0  0  0  0  0  0  0  0  0  0  0
  -21.2430   12.6720  -29.6010 C   0  0  0  0  0  0  0  0  0  0  0  0
  -22.3690   12.2280  -28.9340 C   0  0  0  0  0  0  0  0  0  0  0  0
  -22.8290   12.8860  -27.8570 N   0  0  0  0  0  0  0  0  0  0  0  0
  -22.1990   14.0070  -27.4390 C   0  0  0  0  0  0  0  0  0  0  0  0
  -18.7110   18.1200  -28.0860 C   0  0  0  0  0  0  0  0  0  0  0  0
  -17.8940   19.2430  -27.8610 C   0  0  0  0  0  0  0  0  0  0  0  0
  -16.3454   21.1702  -25.1074 H   0  0  0  0  0  0  0  0  0  0  0  0
  -15.9924   20.0778  -26.4890 H   0  0  0  0  0  0  0  0  0  0  0  0
  -15.3598   21.7590  -26.4890 H   0  0  0  0  0  0  0  0  0  0  0  0
  -17.9850   22.4177  -24.9538 H   0  0  0  0  0  0  0  0  0  0  0  0
  -17.6917   23.6511  -26.2262 H   0  0  0  0  0  0  0  0  0  0  0  0
  -19.2195   22.7065  -26.2262 H   0  0  0  0  0  0  0  0  0  0  0  0
  -16.5965   23.1972  -28.0494 H   0  0  0  0  0  0  0  0  0  0  0  0
  -16.4642   21.5737  -28.8067 H   0  0  0  0  0  0  0  0  0  0  0  0
  -18.0382   22.4393  -28.8067 H   0  0  0  0  0  0  0  0  0  0  0  0
  -20.0929   21.1837  -26.1121 H   0  0  0  0  0  0  0  0  0  0  0  0
  -21.5440   19.1783  -26.5018 H   0  0  0  0  0  0  0  0  0  0  0  0
  -21.1858   18.2257  -30.9685 H   0  0  0  0  0  0  0  0  0  0  0  0
  -22.2050   17.1167  -33.0675 H   0  0  0  0  0  0  0  0  0  0  0  0
  -23.9054   15.3039  -32.3834 H   0  0  0  0  0  0  0  0  0  0  0  0
  -19.3739   15.7174  -28.1351 H   0  0  0  0  0  0  0  0  0  0  0  0
  -19.5770   13.5190  -26.1940 H   0  0  0  0  0  0  0  0  0  0  0  0
  -19.5040   12.6486  -24.0739 H   0  0  0  0  0  0  0  0  0  0  0  0
  -17.7129   14.3622  -24.0295 H   0  0  0  0  0  0  0  0  0  0  0  0
  -18.9655   15.6440  -23.7433 H   0  0  0  0  0  0  0  0  0  0  0  0
  -18.3298   13.3204  -21.8652 H   0  0  0  0  0  0  0  0  0  0  0  0
  -17.8091   15.0265  -21.6474 H   0  0  0  0  0  0  0  0  0  0  0  0
  -19.8500   14.4224  -20.3561 H   0  0  0  0  0  0  0  0  0  0  0  0
  -20.0866   15.7669  -21.5702 H   0  0  0  0  0  0  0  0  0  0  0  0
  -21.0209   12.9023  -21.7256 H   0  0  0  0  0  0  0  0  0  0  0  0
  -21.9836   14.4683  -21.6896 H   0  0  0  0  0  0  0  0  0  0  0  0
  -21.8409   13.2313  -23.9250 H   0  0  0  0  0  0  0  0  0  0  0  0
  -21.4382   15.0027  -23.8789 H   0  0  0  0  0  0  0  0  0  0  0  0
  -19.6965   14.1645  -29.6818 H   0  0  0  0  0  0  0  0  0  0  0  0
  -20.8683   12.1246  -30.4785 H   0  0  0  0  0  0  0  0  0  0  0  0
  -22.8931   11.3280  -29.2881 H   0  0  0  0  0  0  0  0  0  0  0  0
  -22.5899   14.5642  -26.5749 H   0  0  0  0  0  0  0  0  0  0  0  0
  -18.3198   17.2519  -28.6368 H   0  0  0  0  0  0  0  0  0  0  0  0
  -16.8642   19.2584  -28.2473 H   0  0  0  0  0  0  0  0  0  0  0  0
  1  2  1  0
  2  3  1  0
  2  4  1  0
  2  5  1  0
  5  6  2  0
  6  7  1  0
  7  8  2  0
  8  9  1  0
  9 10  1  0
 10 11  2  0
 10 12  1  0
 12 13  2  0
 13 14  1  0
 14 15  1  0
 15 16  2  0
  9 17  1  0
 17 18  1  0
 18 19  2  0
 18 20  1  0
 20 21  1  0
 21 22  1  0
 22 23  1  0
 23 24  1  0
 24 25  1  0
 25 26  1  0
 17 27  1  0
 27 28  2  0
 28 29  1  0
 29 30  2  0
 30 31  1  0
 31 32  2  0
  8 33  1  0
 33 34  2  0
 34  5  1  0
 16 12  1  0
 26 21  1  0
 32 27  1  0
  1 35  1  0
  1 36  1  0
  1 37  1  0
  3 38  1  0
  3 39  1  0
  3 40  1  0
  4 41  1  0
  4 42  1  0
  4 43  1  0
  6 44  1  0
  7 45  1  0
 13 46  1  0
 14 47  1  0
 15 48  1  0
 17 49  1  0
 20 50  1  0
 21 51  1  0
 22 52  1  0
 22 53  1  0
 23 54  1  0
 23 55  1  0
 24 56  1  0
 24 57  1  0
 25 58  1  0
 25 59  1  0
 26 60  1  0
 26 61  1  0
 28 62  1  0
 29 63  1  0
 30 64  1  0
 32 65  1  0
 33 66  1  0
 34 67  1  0
M  END
>  <meeko>  (5) 
{"free_energy": -9.042, "intermolecular_energy": -11.429, "internal_energy": -2.78}

$$$$

     RDKit          3D

 67 70  0  0  0  0  0  0  0  0999 V2000
  -19.3910   13.3860  -28.8780 C   0  0  0  0  0  0  0  0  0  0  0  0
  -20.7570   14.0670  -28.7520 C   0  0  0  0  0  0  0  0  0  0  0  0
  -21.6260   13.6220  -29.9480 C   0  0  0  0  0  0  0  0  0  0  0  0
  -21.4500   13.6070  -27.4730 C   0  0  0  0  0  0  0  0  0  0  0  0
  -20.5110   15.6200  -28.6970 C   0  0  0  0  0  0  0  0  0  0  0  0
  -21.5930   16.4900  -28.5170 C   0  0  0  0  0  0  0  0  0  0  0  0
  -21.3790   17.8740  -28.4630 C   0  0  0  0  0  0  0  0  0  0  0  0
  -20.0780   18.3730  -28.5750 C   0  0  0  0  0  0  0  0  0  0  0  0
  -19.8900   19.8410  -28.5140 N   0  0  0  0  0  0  0  0  0  0  0  0
  -20.0170   20.7210  -29.6840 C   0  0  0  0  0  0  0  0  0  0  0  0
  -19.7840   21.8680  -29.5240 O   0  0  0  0  0  0  0  0  0  0  0  0
  -20.4420   20.1820  -31.0690 C   0  0  0  0  0  0  0  0  0  0  0  0
  -20.0380   20.6060  -32.3210 C   0  0  0  0  0  0  0  0  0  0  0  0
  -20.6350   19.8400  -33.2270 N   0  0  0  0  0  0  0  0  0  0  0  0
  -21.3910   18.9620  -32.5720 C   0  0  0  0  0  0  0  0  0  0  0  0
  -21.2640   19.1710  -31.2460 N   0  0  0  0  0  0  0  0  0  0  0  0
  -19.7310   20.4160  -27.2110 C   0  0  0  0  0  0  0  0  0  0  0  0
  -19.5170   19.2570  -26.1940 C   0  0  0  0  0  0  0  0  0  0  0  0
  -18.4150   18.9430  -25.8220 O   0  0  0  0  0  0  0  0  0  0  0  0
  -20.7250   18.5980  -25.6680 N   0  0  0  0  0  0  0  0  0  0  0  0
  -20.6850   17.5220  -24.7080 C   0  0  0  0  0  0  0  0  0  0  0  0
  -22.0870   16.9200  -24.6690 C   0  0  0  0  0  0  0  0  0  0  0  0
  -22.1550   15.6900  -23.7670 C   0  0  0  0  0  0  0  0  0  0  0  0
  -21.2090   14.6410  -24.2740 C   0  0  0  0  0  0  0  0  0  0  0  0
  -19.7920   15.1430  -24.4610 C   0  0  0  0  0  0  0  0  0  0  0  0
  -19.6710   16.4790  -25.2110 C   0  0  0  0  0  0  0  0  0  0  0  0
  -18.5310   21.2790  -26.9570 C   0  0  0  0  0  0  0  0  0  0  0  0
  -17.4230   21.0610  -27.6970 C   0  0  0  0  0  0  0  0  0  0  0  0
  -16.3300   21.8680  -27.5070 C   0  0  0  0  0  0  0  0  0  0  0  0
  -16.3840   22.8840  -26.5720 C   0  0  0  0  0  0  0  0  0  0  0  0
  -17.4990   23.0900  -25.8520 N   0  0  0  0  0  0  0  0  0  0  0  0
  -18.5680   22.2810  -26.0270 C   0  0  0  0  0  0  0  0  0  0  0  0
  -19.0050   17.5220  -28.7580 C   0  0  0  0  0  0  0  0  0  0  0  0
  -19.2200   16.1330  -28.8130 C   0  0  0  0  0  0  0  0  0  0  0  0
  -18.9876   13.1849  -27.8746 H   0  0  0  0  0  0  0  0  0  0  0  0
  -19.5029   12.4382  -29.4250 H   0  0  0  0  0  0  0  0  0  0  0  0
  -18.7014   14.0458  -29.4250 H   0  0  0  0  0  0  0  0  0  0  0  0
  -22.5475   13.1501  -29.5762 H   0  0  0  0  0  0  0  0  0  0  0  0
  -21.8842   14.4988  -30.5600 H   0  0  0  0  0  0  0  0  0  0  0  0
  -21.0655   12.9000  -30.5600 H   0  0  0  0  0  0  0  0  0  0  0  0
  -20.8922   13.9773  -26.6002 H   0  0  0  0  0  0  0  0  0  0  0  0
  -22.4754   14.0043  -27.4483 H   0  0  0  0  0  0  0  0  0  0  0  0
  -21.4820   12.5077  -27.4483 H   0  0  0  0  0  0  0  0  0  0  0  0
  -22.6117   16.0870  -28.4179 H   0  0  0  0  0  0  0  0  0  0  0  0
  -22.2276   18.5618  -28.3336 H   0  0  0  0  0  0  0  0  0  0  0  0
  -19.3436   21.4330  -32.5304 H   0  0  0  0  0  0  0  0  0  0  0  0
  -20.5318   19.9122  -34.2493 H   0  0  0  0  0  0  0  0  0  0  0  0
  -22.0194   18.1889  -33.0382 H   0  0  0  0  0  0  0  0  0  0  0  0
  -20.6331   21.0384  -27.1165 H   0  0  0  0  0  0  0  0  0  0  0  0
  -21.4910   18.8680  -25.9490 H   0  0  0  0  0  0  0  0  0  0  0  0
  -20.3866   17.8605  -23.7048 H   0  0  0  0  0  0  0  0  0  0  0  0
  -22.7887   17.6777  -24.2902 H   0  0  0  0  0  0  0  0  0  0  0  0
  -22.3521   16.6083  -25.6901 H   0  0  0  0  0  0  0  0  0  0  0  0
  -21.8736   15.9719  -22.7417 H   0  0  0  0  0  0  0  0  0  0  0  0
  -23.1798   15.2903  -23.7709 H   0  0  0  0  0  0  0  0  0  0  0  0
  -21.1916   13.8104  -23.5530 H   0  0  0  0  0  0  0  0  0  0  0  0
  -21.5740   14.3279  -25.2633 H   0  0  0  0  0  0  0  0  0  0  0  0
  -19.3399   15.2679  -23.4660 H   0  0  0  0  0  0  0  0  0  0  0  0
  -19.2794   14.3937  -25.0821 H   0  0  0  0  0  0  0  0  0  0  0  0
  -18.6548   16.8750  -25.0676 H   0  0  0  0  0  0  0  0  0  0  0  0
  -19.8805   16.2896  -26.2741 H   0  0  0  0  0  0  0  0  0  0  0  0
  -17.3971   20.2500  -28.4397 H   0  0  0  0  0  0  0  0  0  0  0  0
  -15.4151   21.7071  -28.0961 H   0  0  0  0  0  0  0  0  0  0  0  0
  -15.5069   23.5292  -26.4161 H   0  0  0  0  0  0  0  0  0  0  0  0
  -19.4721   22.4295  -25.4183 H   0  0  0  0  0  0  0  0  0  0  0  0
  -17.9880   17.9286  -28.8601 H   0  0  0  0  0  0  0  0  0  0  0  0
  -18.3680   15.4504  -28.9478 H   0  0  0  0  0  0  0  0  0  0  0  0
  1  2  1  0
  2  3  1  0
  2  4  1  0
  2  5  1  0
  5  6  2  0
  6  7  1  0
  7  8  2  0
  8  9  1  0
  9 10  1  0
 10 11  2  0
 10 12  1  0
 12 13  2  0
 13 14  1  0
 14 15  1  0
 15 16  2  0
  9 17  1  0
 17 18  1  0
 18 19  2  0
 18 20  1  0
 20 21  1  0
 21 22  1  0
 22 23  1  0
 23 24  1  0
 24 25  1  0
 25 26  1  0
 17 27  1  0
 27 28  2  0
 28 29  1  0
 29 30  2  0
 30 31  1  0
 31 32  2  0
  8 33  1  0
 33 34  2  0
 34  5  1  0
 16 12  1  0
 26 21  1  0
 32 27  1  0
  1 35  1  0
  1 36  1  0
  1 37  1  0
  3 38  1  0
  3 39  1  0
  3 40  1  0
  4 41  1  0
  4 42  1  0
  4 43  1  0
  6 44  1  0
  7 45  1  0
 13 46  1  0
 14 47  1  0
 15 48  1  0
 17 49  1  0
 20 50  1  0
 21 51  1  0
 22 52  1  0
 22 53  1  0
 23 54  1  0
 23 55  1  0
 24 56  1  0
 24 57  1  0
 25 58  1  0
 25 59  1  0
 26 60  1  0
 26 61  1  0
 28 62  1  0
 29 63  1  0
 30 64  1  0
 32 65  1  0
 33 66  1  0
 34 67  1  0
M  END
>  <meeko>  (6) 
{"free_energy": -8.907, "intermolecular_energy": -11.293, "internal_energy": -3.32}

$$$$

     RDKit          3D

 67 70  0  0  0  0  0  0  0  0999 V2000
  -22.0050   16.1400  -31.1150 C   0  0  0  0  0  0  0  0  0  0  0  0
  -22.1600   17.4680  -30.3660 C   0  0  0  0  0  0  0  0  0  0  0  0
  -21.2690   18.5180  -31.0620 C   0  0  0  0  0  0  0  0  0  0  0  0
  -23.6060   17.9470  -30.4550 C   0  0  0  0  0  0  0  0  0  0  0  0
  -21.7740   17.2130  -28.8620 C   0  0  0  0  0  0  0  0  0  0  0  0
  -22.7610   17.2670  -27.8710 C   0  0  0  0  0  0  0  0  0  0  0  0
  -22.4230   17.0360  -26.5310 C   0  0  0  0  0  0  0  0  0  0  0  0
  -21.0990   16.7390  -26.1980 C   0  0  0  0  0  0  0  0  0  0  0  0
  -20.7780   16.5030  -24.7710 N   0  0  0  0  0  0  0  0  0  0  0  0
  -20.4060   17.5750  -23.8380 C   0  0  0  0  0  0  0  0  0  0  0  0
  -20.5940   17.3790  -22.6880 O   0  0  0  0  0  0  0  0  0  0  0  0
  -19.7990   18.9100  -24.3270 C   0  0  0  0  0  0  0  0  0  0  0  0
  -19.9330   20.1710  -23.7790 C   0  0  0  0  0  0  0  0  0  0  0  0
  -19.2160   21.0160  -24.5110 N   0  0  0  0  0  0  0  0  0  0  0  0
  -18.6480   20.3140  -25.4890 C   0  0  0  0  0  0  0  0  0  0  0  0
  -19.0030   19.0190  -25.3680 N   0  0  0  0  0  0  0  0  0  0  0  0
  -21.0010   15.1780  -24.2720 C   0  0  0  0  0  0  0  0  0  0  0  0
  -20.7870   14.1770  -25.4450 C   0  0  0  0  0  0  0  0  0  0  0  0
  -19.7840   13.5150  -25.5310 O   0  0  0  0  0  0  0  0  0  0  0  0
  -21.8870   14.0380  -26.4140 N   0  0  0  0  0  0  0  0  0  0  0  0
  -21.8400   13.1390  -27.5410 C   0  0  0  0  0  0  0  0  0  0  0  0
  -23.1260   13.3620  -28.3310 C   0  0  0  0  0  0  0  0  0  0  0  0
  -23.1530   12.5460  -29.6220 C   0  0  0  0  0  0  0  0  0  0  0  0
  -21.9950   12.9400  -30.4910 C   0  0  0  0  0  0  0  0  0  0  0  0
  -20.6560   12.8650  -29.7870 C   0  0  0  0  0  0  0  0  0  0  0  0
  -20.6170   13.5180  -28.3960 C   0  0  0  0  0  0  0  0  0  0  0  0
  -20.0630   14.6430  -23.2310 C   0  0  0  0  0  0  0  0  0  0  0  0
  -20.5930   14.0150  -22.1610 C   0  0  0  0  0  0  0  0  0  0  0  0
  -19.7480   13.4820  -21.2200 C   0  0  0  0  0  0  0  0  0  0  0  0
  -18.3810   13.5960  -21.3860 C   0  0  0  0  0  0  0  0  0  0  0  0
  -17.8740   14.2170  -22.4630 N   0  0  0  0  0  0  0  0  0  0  0  0
  -18.7080   14.7570  -23.3790 C   0  0  0  0  0  0  0  0  0  0  0  0
  -20.1160   16.6890  -27.1680 C   0  0  0  0  0  0  0  0  0  0  0  0
  -20.4560   16.9210  -28.5130 C   0  0  0  0  0  0  0  0  0  0  0  0
  -21.9092   15.3188  -30.3894 H   0  0  0  0  0  0  0  0  0  0  0  0
  -22.8894   15.9699  -31.7466 H   0  0  0  0  0  0  0  0  0  0  0  0
  -21.1052   16.1781  -31.7466 H   0  0  0  0  0  0  0  0  0  0  0  0
  -20.7546   19.1242  -30.3018 H   0  0  0  0  0  0  0  0  0  0  0  0
  -20.5238   18.0081  -31.6902 H   0  0  0  0  0  0  0  0  0  0  0  0
  -21.8934   19.1703  -31.6902 H   0  0  0  0  0  0  0  0  0  0  0  0
  -24.0109   18.0811  -29.4411 H   0  0  0  0  0  0  0  0  0  0  0  0
  -23.6423   18.9052  -30.9940 H   0  0  0  0  0  0  0  0  0  0  0  0
  -24.2072   17.2000  -30.9940 H   0  0  0  0  0  0  0  0  0  0  0  0
  -23.8027   17.4909  -28.1444 H   0  0  0  0  0  0  0  0  0  0  0  0
  -23.1936   17.0880  -25.7477 H   0  0  0  0  0  0  0  0  0  0  0  0
  -20.5292   20.4299  -22.8916 H   0  0  0  0  0  0  0  0  0  0  0  0
  -19.1175   22.0288  -24.3512 H   0  0  0  0  0  0  0  0  0  0  0  0
  -17.9932   20.7251  -26.2714 H   0  0  0  0  0  0  0  0  0  0  0  0
  -22.0036   15.2601  -23.8271 H   0  0  0  0  0  0  0  0  0  0  0  0
  -22.5920   14.5170  -26.3030 H   0  0  0  0  0  0  0  0  0  0  0  0
  -21.7558   12.0849  -27.2381 H   0  0  0  0  0  0  0  0  0  0  0  0
  -23.9822   13.0671  -27.7065 H   0  0  0  0  0  0  0  0  0  0  0  0
  -23.1787   14.4271  -28.6010 H   0  0  0  0  0  0  0  0  0  0  0  0
  -23.0813   11.4754  -29.3799 H   0  0  0  0  0  0  0  0  0  0  0  0
  -24.0941   12.7404  -30.1573 H   0  0  0  0  0  0  0  0  0  0  0  0
  -21.9686   12.2677  -31.3612 H   0  0  0  0  0  0  0  0  0  0  0  0
  -22.1500   13.9903  -30.7786 H   0  0  0  0  0  0  0  0  0  0  0  0
  -20.3888   11.8040  -29.6737 H   0  0  0  0  0  0  0  0  0  0  0  0
  -19.9477   13.4289  -30.4118 H   0  0  0  0  0  0  0  0  0  0  0  0
  -19.7054   13.1890  -27.8757 H   0  0  0  0  0  0  0  0  0  0  0  0
  -20.6271   14.6092  -28.5348 H   0  0  0  0  0  0  0  0  0  0  0  0
  -21.6837   13.9316  -22.0448 H   0  0  0  0  0  0  0  0  0  0  0  0
  -20.1568   12.9668  -20.3383 H   0  0  0  0  0  0  0  0  0  0  0  0
  -17.7026   13.1745  -20.6296 H   0  0  0  0  0  0  0  0  0  0  0  0
  -18.2952   15.2908  -24.2477 H   0  0  0  0  0  0  0  0  0  0  0  0
  -19.0746   16.4692  -26.8901 H   0  0  0  0  0  0  0  0  0  0  0  0
  -19.6803   16.8720  -29.2914 H   0  0  0  0  0  0  0  0  0  0  0  0
  1  2  1  0
  2  3  1  0
  2  4  1  0
  2  5  1  0
  5  6  2  0
  6  7  1  0
  7  8  2  0
  8  9  1  0
  9 10  1  0
 10 11  2  0
 10 12  1  0
 12 13  2  0
 13 14  1  0
 14 15  1  0
 15 16  2  0
  9 17  1  0
 17 18  1  0
 18 19  2  0
 18 20  1  0
 20 21  1  0
 21 22  1  0
 22 23  1  0
 23 24  1  0
 24 25  1  0
 25 26  1  0
 17 27  1  0
 27 28  2  0
 28 29  1  0
 29 30  2  0
 30 31  1  0
 31 32  2  0
  8 33  1  0
 33 34  2  0
 34  5  1  0
 16 12  1  0
 26 21  1  0
 32 27  1  0
  1 35  1  0
  1 36  1  0
  1 37  1  0
  3 38  1  0
  3 39  1  0
  3 40  1  0
  4 41  1  0
  4 42  1  0
  4 43  1  0
  6 44  1  0
  7 45  1  0
 13 46  1  0
 14 47  1  0
 15 48  1  0
 17 49  1  0
 20 50  1  0
 21 51  1  0
 22 52  1  0
 22 53  1  0
 23 54  1  0
 23 55  1  0
 24 56  1  0
 24 57  1  0
 25 58  1  0
 25 59  1  0
 26 60  1  0
 26 61  1  0
 28 62  1  0
 29 63  1  0
 30 64  1  0
 32 65  1  0
 33 66  1  0
 34 67  1  0
M  END
>  <meeko>  (7) 
{"free_energy": -8.479, "intermolecular_energy": -10.866, "internal_energy": -3.136}

$$$$

     RDKit          3D

 67 70  0  0  0  0  0  0  0  0999 V2000
  -18.1760   21.9110  -25.9730 C   0  0  0  0  0  0  0  0  0  0  0  0
  -17.8780   21.0680  -27.2170 C   0  0  0  0  0  0  0  0  0  0  0  0
  -18.2390   21.9060  -28.4620 C   0  0  0  0  0  0  0  0  0  0  0  0
  -16.3870   20.7490  -27.2830 C   0  0  0  0  0  0  0  0  0  0  0  0
  -18.7040   19.7340  -27.0960 C   0  0  0  0  0  0  0  0  0  0  0  0
  -18.8860   19.1390  -25.8420 C   0  0  0  0  0  0  0  0  0  0  0  0
  -19.6240   17.9530  -25.7290 C   0  0  0  0  0  0  0  0  0  0  0  0
  -20.1870   17.3820  -26.8740 C   0  0  0  0  0  0  0  0  0  0  0  0
  -20.9600   16.1280  -26.7160 N   0  0  0  0  0  0  0  0  0  0  0  0
  -20.4530   14.8100  -27.1210 C   0  0  0  0  0  0  0  0  0  0  0  0
  -19.4090   14.4740  -26.6810 O   0  0  0  0  0  0  0  0  0  0  0  0
  -21.2400   13.8930  -28.0860 C   0  0  0  0  0  0  0  0  0  0  0  0
  -22.5970   13.6360  -28.1170 C   0  0  0  0  0  0  0  0  0  0  0  0
  -22.8360   12.8110  -29.1300 N   0  0  0  0  0  0  0  0  0  0  0  0
  -21.6710   12.5540  -29.7190 C   0  0  0  0  0  0  0  0  0  0  0  0
  -20.6930   13.2260  -29.0790 N   0  0  0  0  0  0  0  0  0  0  0  0
  -22.1910   16.2180  -25.9880 C   0  0  0  0  0  0  0  0  0  0  0  0
  -21.8920   15.9120  -24.4910 C   0  0  0  0  0  0  0  0  0  0  0  0
  -22.7530   15.9800  -23.6520 O   0  0  0  0  0  0  0  0  0  0  0  0
  -20.5220   15.4850  -24.1570 N   0  0  0  0  0  0  0  0  0  0  0  0
  -20.1020   15.1520  -22.8190 C   0  0  0  0  0  0  0  0  0  0  0  0
  -21.1120   14.1410  -22.2840 C   0  0  0  0  0  0  0  0  0  0  0  0
  -20.7190   13.6160  -20.9050 C   0  0  0  0  0  0  0  0  0  0  0  0
  -19.3800   12.9420  -20.9850 C   0  0  0  0  0  0  0  0  0  0  0  0
  -18.3030   13.8090  -21.6020 C   0  0  0  0  0  0  0  0  0  0  0  0
  -18.7050   14.5120  -22.9080 C   0  0  0  0  0  0  0  0  0  0  0  0
  -22.8680   17.5540  -25.9030 C   0  0  0  0  0  0  0  0  0  0  0  0
  -23.7130   17.9030  -26.8950 C   0  0  0  0  0  0  0  0  0  0  0  0
  -24.3740   19.1020  -26.8120 C   0  0  0  0  0  0  0  0  0  0  0  0
  -24.1660   19.9230  -25.7200 C   0  0  0  0  0  0  0  0  0  0  0  0
  -23.3280   19.5540  -24.7390 N   0  0  0  0  0  0  0  0  0  0  0  0
  -22.6630   18.3800  -24.8310 C   0  0  0  0  0  0  0  0  0  0  0  0
  -20.0080   17.9600  -28.1170 C   0  0  0  0  0  0  0  0  0  0  0  0
  -19.2670   19.1490  -28.2300 C   0  0  0  0  0  0  0  0  0  0  0  0
  -17.9666   21.3188  -25.0700 H   0  0  0  0  0  0  0  0  0  0  0  0
  -17.5409   22.8091  -25.9779 H   0  0  0  0  0  0  0  0  0  0  0  0
  -19.2345   22.2104  -25.9779 H   0  0  0  0  0  0  0  0  0  0  0  0
  -18.6557   22.8733  -28.1447 H   0  0  0  0  0  0  0  0  0  0  0  0
  -17.3344   22.0763  -29.0643 H   0  0  0  0  0  0  0  0  0  0  0  0
  -18.9841   21.3656  -29.0643 H   0  0  0  0  0  0  0  0  0  0  0  0
  -15.9849   20.6630  -26.2627 H   0  0  0  0  0  0  0  0  0  0  0  0
  -16.2386   19.7988  -27.8169 H   0  0  0  0  0  0  0  0  0  0  0  0
  -15.8628   21.5553  -27.8169 H   0  0  0  0  0  0  0  0  0  0  0  0
  -18.4496   19.6025  -24.9450 H   0  0  0  0  0  0  0  0  0  0  0  0
  -19.7591   17.4754  -24.7474 H   0  0  0  0  0  0  0  0  0  0  0  0
  -23.3480   14.0433  -27.4241 H   0  0  0  0  0  0  0  0  0  0  0  0
  -23.7549   12.4384  -29.4086 H   0  0  0  0  0  0  0  0  0  0  0  0
  -21.5284   11.8974  -30.5900 H   0  0  0  0  0  0  0  0  0  0  0  0
  -22.8448   15.5300  -26.5440 H   0  0  0  0  0  0  0  0  0  0  0  0
  -19.9450   15.4340  -24.7920 H   0  0  0  0  0  0  0  0  0  0  0  0
  -20.0546   16.0312  -22.1596 H   0  0  0  0  0  0  0  0  0  0  0  0
  -22.0965   14.6264  -22.2121 H   0  0  0  0  0  0  0  0  0  0  0  0
  -21.1392   13.2878  -22.9777 H   0  0  0  0  0  0  0  0  0  0  0  0
  -20.6646   14.4551  -20.1958 H   0  0  0  0  0  0  0  0  0  0  0  0
  -21.4724   12.8917  -20.5618 H   0  0  0  0  0  0  0  0  0  0  0  0
  -19.0663   12.6691  -19.9666 H   0  0  0  0  0  0  0  0  0  0  0  0
  -19.4989   12.0625  -21.6349 H   0  0  0  0  0  0  0  0  0  0  0  0
  -18.0257   14.5817  -20.8698 H   0  0  0  0  0  0  0  0  0  0  0  0
  -17.4738   13.1334  -21.8589 H   0  0  0  0  0  0  0  0  0  0  0  0
  -17.9684   15.2989  -23.1277 H   0  0  0  0  0  0  0  0  0  0  0  0
  -18.7315   13.7539  -23.7046 H   0  0  0  0  0  0  0  0  0  0  0  0
  -23.8694   17.2369  -27.7563 H   0  0  0  0  0  0  0  0  0  0  0  0
  -25.0659   19.4084  -27.6103 H   0  0  0  0  0  0  0  0  0  0  0  0
  -24.6917   20.8870  -25.6544 H   0  0  0  0  0  0  0  0  0  0  0  0
  -21.9549   18.0879  -24.0415 H   0  0  0  0  0  0  0  0  0  0  0  0
  -20.4430   17.4921  -29.0125 H   0  0  0  0  0  0  0  0  0  0  0  0
  -19.1308   19.6192  -29.2151 H   0  0  0  0  0  0  0  0  0  0  0  0
  1  2  1  0
  2  3  1  0
  2  4  1  0
  2  5  1  0
  5  6  2  0
  6  7  1  0
  7  8  2  0
  8  9  1  0
  9 10  1  0
 10 11  2  0
 10 12  1  0
 12 13  2  0
 13 14  1  0
 14 15  1  0
 15 16  2  0
  9 17  1  0
 17 18  1  0
 18 19  2  0
 18 20  1  0
 20 21  1  0
 21 22  1  0
 22 23  1  0
 23 24  1  0
 24 25  1  0
 25 26  1  0
 17 27  1  0
 27 28  2  0
 28 29  1  0
 29 30  2  0
 30 31  1  0
 31 32  2  0
  8 33  1  0
 33 34  2  0
 34  5  1  0
 16 12  1  0
 26 21  1  0
 32 27  1  0
  1 35  1  0
  1 36  1  0
  1 37  1  0
  3 38  1  0
  3 39  1  0
  3 40  1  0
  4 41  1  0
  4 42  1  0
  4 43  1  0
  6 44  1  0
  7 45  1  0
 13 46  1  0
 14 47  1  0
 15 48  1  0
 17 49  1  0
 20 50  1  0
 21 51  1  0
 22 52  1  0
 22 53  1  0
 23 54  1  0
 23 55  1  0
 24 56  1  0
 24 57  1  0
 25 58  1  0
 25 59  1  0
 26 60  1  0
 26 61  1  0
 28 62  1  0
 29 63  1  0
 30 64  1  0
 32 65  1  0
 33 66  1  0
 34 67  1  0
M  END
>  <meeko>  (8) 
{"free_energy": -8.369, "intermolecular_energy": -10.755, "internal_energy": -3.232}

$$$$

     RDKit          3D

 67 70  0  0  0  0  0  0  0  0999 V2000
  -19.8030   13.7940  -20.9630 C   0  0  0  0  0  0  0  0  0  0  0  0
  -21.0090   14.4890  -21.6030 C   0  0  0  0  0  0  0  0  0  0  0  0
  -22.2600   13.6260  -21.3320 C   0  0  0  0  0  0  0  0  0  0  0  0
  -21.2290   15.8510  -20.9510 C   0  0  0  0  0  0  0  0  0  0  0  0
  -20.6930   14.6760  -23.1330 C   0  0  0  0  0  0  0  0  0  0  0  0
  -19.3710   14.8620  -23.5540 C   0  0  0  0  0  0  0  0  0  0  0  0
  -19.0850   15.0240  -24.9160 C   0  0  0  0  0  0  0  0  0  0  0  0
  -20.1270   14.9840  -25.8470 C   0  0  0  0  0  0  0  0  0  0  0  0
  -19.7870   15.1610  -27.2780 N   0  0  0  0  0  0  0  0  0  0  0  0
  -19.7780   14.0580  -28.2490 C   0  0  0  0  0  0  0  0  0  0  0  0
  -18.7340   13.7540  -28.7100 O   0  0  0  0  0  0  0  0  0  0  0  0
  -21.0730   13.3230  -28.6620 C   0  0  0  0  0  0  0  0  0  0  0  0
  -21.2870   12.4920  -29.7450 C   0  0  0  0  0  0  0  0  0  0  0  0
  -22.5410   12.0590  -29.6910 N   0  0  0  0  0  0  0  0  0  0  0  0
  -23.1030   12.5970  -28.6120 C   0  0  0  0  0  0  0  0  0  0  0  0
  -22.1960   13.3680  -27.9780 N   0  0  0  0  0  0  0  0  0  0  0  0
  -19.6160   16.5080  -27.7370 C   0  0  0  0  0  0  0  0  0  0  0  0
  -20.6150   16.7520  -28.9060 C   0  0  0  0  0  0  0  0  0  0  0  0
  -20.3320   17.4600  -29.8370 O   0  0  0  0  0  0  0  0  0  0  0  0
  -21.9020   16.0370  -28.8440 N   0  0  0  0  0  0  0  0  0  0  0  0
  -22.9190   16.1500  -29.8610 C   0  0  0  0  0  0  0  0  0  0  0  0
  -23.1970   17.6410  -30.0340 C   0  0  0  0  0  0  0  0  0  0  0  0
  -24.1830   17.9090  -31.1690 C   0  0  0  0  0  0  0  0  0  0  0  0
  -23.6220   17.3840  -32.4590 C   0  0  0  0  0  0  0  0  0  0  0  0
  -23.2020   15.9310  -32.3890 C   0  0  0  0  0  0  0  0  0  0  0  0
  -22.3510   15.5590  -31.1640 C   0  0  0  0  0  0  0  0  0  0  0  0
  -19.9570   17.6260  -26.7970 C   0  0  0  0  0  0  0  0  0  0  0  0
  -21.2440   18.0230  -26.7220 C   0  0  0  0  0  0  0  0  0  0  0  0
  -21.5810   19.0160  -25.8370 C   0  0  0  0  0  0  0  0  0  0  0  0
  -20.6040   19.5850  -25.0430 C   0  0  0  0  0  0  0  0  0  0  0  0
  -19.3290   19.1690  -25.1270 N   0  0  0  0  0  0  0  0  0  0  0  0
  -18.9960   18.2040  -26.0120 C   0  0  0  0  0  0  0  0  0  0  0  0
  -21.4360   14.8060  -25.4410 C   0  0  0  0  0  0  0  0  0  0  0  0
  -21.7230   14.6440  -24.0730 C   0  0  0  0  0  0  0  0  0  0  0  0
  -19.8897   13.8440  -19.8676 H   0  0  0  0  0  0  0  0  0  0  0  0
  -19.7751   12.7413  -21.2810 H   0  0  0  0  0  0  0  0  0  0  0  0
  -18.8782   14.2977  -21.2810 H   0  0  0  0  0  0  0  0  0  0  0  0
  -22.4073   13.5244  -20.2466 H   0  0  0  0  0  0  0  0  0  0  0  0
  -23.1421   14.1086  -21.7781 H   0  0  0  0  0  0  0  0  0  0  0  0
  -22.1221   12.6300  -21.7781 H   0  0  0  0  0  0  0  0  0  0  0  0
  -21.2112   15.7408  -19.8567 H   0  0  0  0  0  0  0  0  0  0  0  0
  -20.4305   16.5402  -21.2632 H   0  0  0  0  0  0  0  0  0  0  0  0
  -22.2038   16.2538  -21.2632 H   0  0  0  0  0  0  0  0  0  0  0  0
  -18.5563   14.8810  -22.8152 H   0  0  0  0  0  0  0  0  0  0  0  0
  -18.0488   15.1814  -25.2500 H   0  0  0  0  0  0  0  0  0  0  0  0
  -20.5474   12.2341  -30.5173 H   0  0  0  0  0  0  0  0  0  0  0  0
  -22.9954   11.4230  -30.3617 H   0  0  0  0  0  0  0  0  0  0  0  0
  -24.1422   12.4383  -28.2883 H   0  0  0  0  0  0  0  0  0  0  0  0
  -18.5378   16.5491  -27.9510 H   0  0  0  0  0  0  0  0  0  0  0  0
  -22.0530   15.5280  -28.1690 H   0  0  0  0  0  0  0  0  0  0  0  0
  -23.8439   15.6164  -29.5967 H   0  0  0  0  0  0  0  0  0  0  0  0
  -23.6176   18.0353  -29.0972 H   0  0  0  0  0  0  0  0  0  0  0  0
  -22.2477   18.1379  -30.2829 H   0  0  0  0  0  0  0  0  0  0  0  0
  -25.1363   17.4047  -30.9524 H   0  0  0  0  0  0  0  0  0  0  0  0
  -24.3512   18.9924  -31.2582 H   0  0  0  0  0  0  0  0  0  0  0  0
  -24.3898   17.4871  -33.2399 H   0  0  0  0  0  0  0  0  0  0  0  0
  -22.7187   17.9711  -32.6813 H   0  0  0  0  0  0  0  0  0  0  0  0
  -24.1120   15.3132  -32.3727 H   0  0  0  0  0  0  0  0  0  0  0  0
  -22.5679   15.7515  -33.2698 H   0  0  0  0  0  0  0  0  0  0  0  0
  -22.3213   14.4632  -31.0727 H   0  0  0  0  0  0  0  0  0  0  0  0
  -21.3438   15.9754  -31.3131 H   0  0  0  0  0  0  0  0  0  0  0  0
  -22.0105   17.5585  -27.3597 H   0  0  0  0  0  0  0  0  0  0  0  0
  -22.6239   19.3573  -25.7601 H   0  0  0  0  0  0  0  0  0  0  0  0
  -20.8718   20.3846  -24.3367 H   0  0  0  0  0  0  0  0  0  0  0  0
  -17.9482   17.8814  -26.1021 H   0  0  0  0  0  0  0  0  0  0  0  0
  -22.2483   14.7911  -26.1825 H   0  0  0  0  0  0  0  0  0  0  0  0
  -22.7616   14.4918  -23.7443 H   0  0  0  0  0  0  0  0  0  0  0  0
  1  2  1  0
  2  3  1  0
  2  4  1  0
  2  5  1  0
  5  6  2  0
  6  7  1  0
  7  8  2  0
  8  9  1  0
  9 10  1  0
 10 11  2  0
 10 12  1  0
 12 13  2  0
 13 14  1  0
 14 15  1  0
 15 16  2  0
  9 17  1  0
 17 18  1  0
 18 19  2  0
 18 20  1  0
 20 21  1  0
 21 22  1  0
 22 23  1  0
 23 24  1  0
 24 25  1  0
 25 26  1  0
 17 27  1  0
 27 28  2  0
 28 29  1  0
 29 30  2  0
 30 31  1  0
 31 32  2  0
  8 33  1  0
 33 34  2  0
 34  5  1  0
 16 12  1  0
 26 21  1  0
 32 27  1  0
  1 35  1  0
  1 36  1  0
  1 37  1  0
  3 38  1  0
  3 39  1  0
  3 40  1  0
  4 41  1  0
  4 42  1  0
  4 43  1  0
  6 44  1  0
  7 45  1  0
 13 46  1  0
 14 47  1  0
 15 48  1  0
 17 49  1  0
 20 50  1  0
 21 51  1  0
 22 52  1  0
 22 53  1  0
 23 54  1  0
 23 55  1  0
 24 56  1  0
 24 57  1  0
 25 58  1  0
 25 59  1  0
 26 60  1  0
 26 61  1  0
 28 62  1  0
 29 63  1  0
 30 64  1  0
 32 65  1  0
 33 66  1  0
 34 67  1  0
M  END
>  <meeko>  (9) 
{"free_energy": -7.768, "intermolecular_energy": -10.154, "internal_energy": -3.864}

$$$$

