
     RDKit          3D

 67 70  0  0  0  0  0  0  0  0999 V2000
  -16.3780   20.7750  -27.1450 C   0  0  0  0  0  0  0  0  0  0  0  0
  -17.8550   21.1830  -27.1510 C   0  0  0  0  0  0  0  0  0  0  0  0
  -18.0910   22.1470  -25.9700 C   0  0  0  0  0  0  0  0  0  0  0  0
  -18.1800   21.9330  -28.4400 C   0  0  0  0  0  0  0  0  0  0  0  0
  -18.7120   19.8660  -27.0700 C   0  0  0  0  0  0  0  0  0  0  0  0
  -19.0020   19.2990  -25.8230 C   0  0  0  0  0  0  0  0  0  0  0  0
  -19.7690   18.1290  -25.7460 C   0  0  0  0  0  0  0  0  0  0  0  0
  -20.2520   17.5460  -26.9200 C   0  0  0  0  0  0  0  0  0  0  0  0
  -21.0590   16.3090  -26.8000 N   0  0  0  0  0  0  0  0  0  0  0  0
  -22.4070   16.2760  -26.2170 C   0  0  0  0  0  0  0  0  0  0  0  0
  -23.2680   15.8030  -26.8730 O   0  0  0  0  0  0  0  0  0  0  0  0
  -22.7010   16.8380  -24.8070 C   0  0  0  0  0  0  0  0  0  0  0  0
  -23.1980   18.0800  -24.4590 C   0  0  0  0  0  0  0  0  0  0  0  0
  -23.3180   18.1200  -23.1370 N   0  0  0  0  0  0  0  0  0  0  0  0
  -22.9110   16.9450  -22.6640 C   0  0  0  0  0  0  0  0  0  0  0  0
  -22.5390   16.1570  -23.6930 N   0  0  0  0  0  0  0  0  0  0  0  0
  -20.5340   15.1350  -27.4330 C   0  0  0  0  0  0  0  0  0  0  0  0
  -20.0900   14.1420  -26.3190 C   0  0  0  0  0  0  0  0  0  0  0  0
  -19.4890   13.1310  -26.5810 O   0  0  0  0  0  0  0  0  0  0  0  0
  -20.3930   14.5190  -24.9280 N   0  0  0  0  0  0  0  0  0  0  0  0
  -20.0290   13.7090  -23.7910 C   0  0  0  0  0  0  0  0  0  0  0  0
  -18.7660   14.3300  -23.2000 C   0  0  0  0  0  0  0  0  0  0  0  0
  -18.3340   13.6290  -21.9140 C   0  0  0  0  0  0  0  0  0  0  0  0
  -19.4280   13.7320  -20.8920 C   0  0  0  0  0  0  0  0  0  0  0  0
  -20.7710   13.2440  -21.3930 C   0  0  0  0  0  0  0  0  0  0  0  0
  -21.1820   13.7780  -22.7740 C   0  0  0  0  0  0  0  0  0  0  0  0
  -21.4680   14.2900  -28.2480 C   0  0  0  0  0  0  0  0  0  0  0  0
  -21.5970   14.5720  -29.5620 C   0  0  0  0  0  0  0  0  0  0  0  0
  -22.4140   13.7830  -30.3320 C   0  0  0  0  0  0  0  0  0  0  0  0
  -23.0820   12.7210  -29.7530 C   0  0  0  0  0  0  0  0  0  0  0  0
  -22.9340   12.4520  -28.4450 N   0  0  0  0  0  0  0  0  0  0  0  0
  -22.1430   13.2420  -27.6850 C   0  0  0  0  0  0  0  0  0  0  0  0
  -19.9680   18.0950  -28.1560 C   0  0  0  0  0  0  0  0  0  0  0  0
  -19.1970   19.2690  -28.2330 C   0  0  0  0  0  0  0  0  0  0  0  0
  -16.0285   20.6785  -26.1065 H   0  0  0  0  0  0  0  0  0  0  0  0
  -16.2618   19.8111  -27.6621 H   0  0  0  0  0  0  0  0  0  0  0  0
  -15.7835   21.5426  -27.6621 H   0  0  0  0  0  0  0  0  0  0  0  0
  -17.9583   21.6049  -25.0221 H   0  0  0  0  0  0  0  0  0  0  0  0
  -17.3691   22.9753  -26.0229 H   0  0  0  0  0  0  0  0  0  0  0  0
  -19.1139   22.5482  -26.0229 H   0  0  0  0  0  0  0  0  0  0  0  0
  -18.6063   22.9168  -28.1943 H   0  0  0  0  0  0  0  0  0  0  0  0
  -17.2599   22.0685  -29.0274 H   0  0  0  0  0  0  0  0  0  0  0  0
  -18.9081   21.3542  -29.0274 H   0  0  0  0  0  0  0  0  0  0  0  0
  -18.6275   19.7723  -24.9034 H   0  0  0  0  0  0  0  0  0  0  0  0
  -19.9890   17.6733  -24.7693 H   0  0  0  0  0  0  0  0  0  0  0  0
  -23.4501   18.8933  -25.1555 H   0  0  0  0  0  0  0  0  0  0  0  0
  -23.6629   18.9149  -22.5801 H   0  0  0  0  0  0  0  0  0  0  0  0
  -22.8825   16.6612  -21.6016 H   0  0  0  0  0  0  0  0  0  0  0  0
  -19.7668   15.5515  -28.1023 H   0  0  0  0  0  0  0  0  0  0  0  0
  -20.8080   15.2590  -24.7870 H   0  0  0  0  0  0  0  0  0  0  0  0
  -19.8484   12.6580  -24.0606 H   0  0  0  0  0  0  0  0  0  0  0  0
  -17.9533   14.2526  -23.9373 H   0  0  0  0  0  0  0  0  0  0  0  0
  -18.9841   15.3808  -22.9584 H   0  0  0  0  0  0  0  0  0  0  0  0
  -18.1296   12.5691  -22.1258 H   0  0  0  0  0  0  0  0  0  0  0  0
  -17.4241   14.1090  -21.5245 H   0  0  0  0  0  0  0  0  0  0  0  0
  -19.1438   13.1305  -20.0160 H   0  0  0  0  0  0  0  0  0  0  0  0
  -19.5423   14.7982  -20.6469 H   0  0  0  0  0  0  0  0  0  0  0  0
  -20.7361   12.1459  -21.4483 H   0  0  0  0  0  0  0  0  0  0  0  0
  -21.5203   13.6219  -20.6818 H   0  0  0  0  0  0  0  0  0  0  0  0
  -22.0227   13.1767  -23.1504 H   0  0  0  0  0  0  0  0  0  0  0  0
  -21.4659   14.8342  -22.6567 H   0  0  0  0  0  0  0  0  0  0  0  0
  -21.0563   15.4199  -30.0078 H   0  0  0  0  0  0  0  0  0  0  0  0
  -22.5365   13.9948  -31.4044 H   0  0  0  0  0  0  0  0  0  0  0  0
  -23.7406   12.0904  -30.3683 H   0  0  0  0  0  0  0  0  0  0  0  0
  -22.0417   13.0410  -26.6083 H   0  0  0  0  0  0  0  0  0  0  0  0
  -20.3423   17.6172  -29.0734 H   0  0  0  0  0  0  0  0  0  0  0  0
  -18.9762   19.7171  -29.2130 H   0  0  0  0  0  0  0  0  0  0  0  0
  1  2  1  0
  2  3  1  0
  2  4  1  0
  2  5  1  0
  5  6  2  0
  6  7  1  0
  7  8  2  0
  8  9  1  0
  9 10  1  0
 10 11  2  0
 10 12  1  0
 12 13  2  0
 13 14  1  0
 14 15  1  0
 15 16  2  0
  9 17  1  0
 17 18  1  0
 18 19  2  0
 18 20  1  0
 20 21  1  0
 21 22  1  0
 22 23  1  0
 23 24  1  0
 24 25  1  0
 25 26  1  0
 17 27  1  0
 27 28  2  0
 28 29  1  0
 29 30  2  0
 30 31  1  0
 31 32  2  0
  8 33  1  0
 33 34  2  0
 34  5  1  0
 16 12  1  0
 26 21  1  0
 32 27  1  0
  1 35  1  0
  1 36  1  0
  1 37  1  0
  3 38  1  0
  3 39  1  0
  3 40  1  0
  4 41  1  0
  4 42  1  0
  4 43  1  0
  6 44  1  0
  7 45  1  0
 13 46  1  0
 14 47  1  0
 15 48  1  0
 17 49  1  0
 20 50  1  0
 21 51  1  0
 22 52  1  0
 22 53  1  0
 23 54  1  0
 23 55  1  0
 24 56  1  0
 24 57  1  0
 25 58  1  0
 25 59  1  0
 26 60  1  0
 26 61  1  0
 28 62  1  0
 29 63  1  0
 30 64  1  0
 32 65  1  0
 33 66  1  0
 34 67  1  0
M  END
>  <meeko>  (1) 
{"free_energy": -9.331, "intermolecular_energy": -11.718, "internal_energy": -3.284}

$$$$

     RDKit          3D

 67 70  0  0  0  0  0  0  0  0999 V2000
  -23.9980   16.8130  -33.6220 C   0  0  0  0  0  0  0  0  0  0  0  0
  -24.5800   17.2240  -32.2660 C   0  0  0  0  0  0  0  0  0  0  0  0
  -25.1280   18.6610  -32.3950 C   0  0  0  0  0  0  0  0  0  0  0  0
  -25.7470   16.3090  -31.9040 C   0  0  0  0  0  0  0  0  0  0  0  0
  -23.4380   17.0800  -31.1940 C   0  0  0  0  0  0  0  0  0  0  0  0
  -22.2760   16.3640  -31.5060 C   0  0  0  0  0  0  0  0  0  0  0  0
  -21.2530   16.2370  -30.5570 C   0  0  0  0  0  0  0  0  0  0  0  0
  -21.3990   16.8430  -29.3050 C   0  0  0  0  0  0  0  0  0  0  0  0
  -20.2980   16.6860  -28.3250 N   0  0  0  0  0  0  0  0  0  0  0  0
  -19.4800   17.8070  -27.8440 C   0  0  0  0  0  0  0  0  0  0  0  0
  -18.6170   18.1890  -28.5540 O   0  0  0  0  0  0  0  0  0  0  0  0
  -19.7240   18.4640  -26.4660 C   0  0  0  0  0  0  0  0  0  0  0  0
  -20.7100   19.3600  -26.0990 C   0  0  0  0  0  0  0  0  0  0  0  0
  -20.5560   19.6370  -24.8100 N   0  0  0  0  0  0  0  0  0  0  0  0
  -19.5080   18.9400  -24.3740 C   0  0  0  0  0  0  0  0  0  0  0  0
  -19.0040   18.2150  -25.3930 N   0  0  0  0  0  0  0  0  0  0  0  0
  -20.1540   15.3950  -27.7220 C   0  0  0  0  0  0  0  0  0  0  0  0
  -20.4720   15.5310  -26.2040 C   0  0  0  0  0  0  0  0  0  0  0  0
  -21.4490   16.1190  -25.8170 O   0  0  0  0  0  0  0  0  0  0  0  0
  -19.5510   14.8660  -25.2660 N   0  0  0  0  0  0  0  0  0  0  0  0
  -19.7250   14.8910  -23.8350 C   0  0  0  0  0  0  0  0  0  0  0  0
  -20.8920   13.9580  -23.5220 C   0  0  0  0  0  0  0  0  0  0  0  0
  -21.1120   13.8050  -22.0180 C   0  0  0  0  0  0  0  0  0  0  0  0
  -19.8760   13.2390  -21.3820 C   0  0  0  0  0  0  0  0  0  0  0  0
  -18.6190   14.0180  -21.7060 C   0  0  0  0  0  0  0  0  0  0  0  0
  -18.4310   14.3600  -23.1920 C   0  0  0  0  0  0  0  0  0  0  0  0
  -21.0970   14.3060  -28.1400 C   0  0  0  0  0  0  0  0  0  0  0  0
  -20.7320   13.5080  -29.1660 C   0  0  0  0  0  0  0  0  0  0  0  0
  -21.5630   12.4800  -29.5340 C   0  0  0  0  0  0  0  0  0  0  0  0
  -22.7480   12.2810  -28.8520 C   0  0  0  0  0  0  0  0  0  0  0  0
  -23.0890   13.0810  -27.8280 N   0  0  0  0  0  0  0  0  0  0  0  0
  -22.2780   14.1040  -27.4790 C   0  0  0  0  0  0  0  0  0  0  0  0
  -22.5440   17.5470  -28.9860 C   0  0  0  0  0  0  0  0  0  0  0  0
  -23.5710   17.6740  -29.9390 C   0  0  0  0  0  0  0  0  0  0  0  0
  -23.1088   16.1850  -33.4642 H   0  0  0  0  0  0  0  0  0  0  0  0
  -24.7517   16.2458  -34.1878 H   0  0  0  0  0  0  0  0  0  0  0  0
  -23.7156   17.7131  -34.1878 H   0  0  0  0  0  0  0  0  0  0  0  0
  -25.2891   19.0834  -31.3922 H   0  0  0  0  0  0  0  0  0  0  0  0
  -24.4036   19.2819  -32.9424 H   0  0  0  0  0  0  0  0  0  0  0  0
  -26.0819   18.6419  -32.9424 H   0  0  0  0  0  0  0  0  0  0  0  0
  -25.8338   16.2410  -30.8095 H   0  0  0  0  0  0  0  0  0  0  0  0
  -26.6783   16.7201  -32.3208 H   0  0  0  0  0  0  0  0  0  0  0  0
  -25.5699   15.3065  -32.3208 H   0  0  0  0  0  0  0  0  0  0  0  0
  -22.1660   15.9005  -32.4975 H   0  0  0  0  0  0  0  0  0  0  0  0
  -20.3434   15.6659  -30.7945 H   0  0  0  0  0  0  0  0  0  0  0  0
  -21.4870   19.7718  -26.7598 H   0  0  0  0  0  0  0  0  0  0  0  0
  -21.1399   20.2741  -24.2496 H   0  0  0  0  0  0  0  0  0  0  0  0
  -19.1161   18.9537  -23.3463 H   0  0  0  0  0  0  0  0  0  0  0  0
  -19.1354   15.1083  -28.0224 H   0  0  0  0  0  0  0  0  0  0  0  0
  -18.8760   14.4430  -25.5890 H   0  0  0  0  0  0  0  0  0  0  0  0
  -19.9293   15.9014  -23.4511 H   0  0  0  0  0  0  0  0  0  0  0  0
  -21.8065   14.3681  -23.9752 H   0  0  0  0  0  0  0  0  0  0  0  0
  -20.6553   12.9661  -23.9344 H   0  0  0  0  0  0  0  0  0  0  0  0
  -21.3317   14.7891  -21.5784 H   0  0  0  0  0  0  0  0  0  0  0  0
  -21.9578   13.1245  -21.8405 H   0  0  0  0  0  0  0  0  0  0  0  0
  -20.0145   13.2397  -20.2907 H   0  0  0  0  0  0  0  0  0  0  0  0
  -19.7406   12.2244  -21.7848 H   0  0  0  0  0  0  0  0  0  0  0  0
  -18.6465   14.9607  -21.1399 H   0  0  0  0  0  0  0  0  0  0  0  0
  -17.7754   13.3676  -21.4315 H   0  0  0  0  0  0  0  0  0  0  0  0
  -17.6493   15.1286  -23.2824 H   0  0  0  0  0  0  0  0  0  0  0  0
  -18.1472   13.4364  -23.7177 H   0  0  0  0  0  0  0  0  0  0  0  0
  -19.7845   13.6790  -29.6979 H   0  0  0  0  0  0  0  0  0  0  0  0
  -21.2871   11.8177  -30.3678 H   0  0  0  0  0  0  0  0  0  0  0  0
  -23.4177   11.4608  -29.1499 H   0  0  0  0  0  0  0  0  0  0  0  0
  -22.5686   14.7777  -26.6595 H   0  0  0  0  0  0  0  0  0  0  0  0
  -22.6521   18.0058  -27.9921 H   0  0  0  0  0  0  0  0  0  0  0  0
  -24.4802   18.2426  -29.6941 H   0  0  0  0  0  0  0  0  0  0  0  0
  1  2  1  0
  2  3  1  0
  2  4  1  0
  2  5  1  0
  5  6  2  0
  6  7  1  0
  7  8  2  0
  8  9  1  0
  9 10  1  0
 10 11  2  0
 10 12  1  0
 12 13  2  0
 13 14  1  0
 14 15  1  0
 15 16  2  0
  9 17  1  0
 17 18  1  0
 18 19  2  0
 18 20  1  0
 20 21  1  0
 21 22  1  0
 22 23  1  0
 23 24  1  0
 24 25  1  0
 25 26  1  0
 17 27  1  0
 27 28  2  0
 28 29  1  0
 29 30  2  0
 30 31  1  0
 31 32  2  0
  8 33  1  0
 33 34  2  0
 34  5  1  0
 16 12  1  0
 26 21  1  0
 32 27  1  0
  1 35  1  0
  1 36  1  0
  1 37  1  0
  3 38  1  0
  3 39  1  0
  3 40  1  0
  4 41  1  0
  4 42  1  0
  4 43  1  0
  6 44  1  0
  7 45  1  0
 13 46  1  0
 14 47  1  0
 15 48  1  0
 17 49  1  0
 20 50  1  0
 21 51  1  0
 22 52  1  0
 22 53  1  0
 23 54  1  0
 23 55  1  0
 24 56  1  0
 24 57  1  0
 25 58  1  0
 25 59  1  0
 26 60  1  0
 26 61  1  0
 28 62  1  0
 29 63  1  0
 30 64  1  0
 32 65  1  0
 33 66  1  0
 34 67  1  0
M  END
>  <meeko>  (2) 
{"free_energy": -9.258, "intermolecular_energy": -11.645, "internal_energy": -2.696}

$$$$

     RDKit          3D

 67 70  0  0  0  0  0  0  0  0999 V2000
  -20.8800   15.8050  -21.0810 C   0  0  0  0  0  0  0  0  0  0  0  0
  -20.6360   14.4610  -21.7760 C   0  0  0  0  0  0  0  0  0  0  0  0
  -19.3230   13.8670  -21.2240 C   0  0  0  0  0  0  0  0  0  0  0  0
  -21.7660   13.4910  -21.4400 C   0  0  0  0  0  0  0  0  0  0  0  0
  -20.6040   14.7260  -23.3260 C   0  0  0  0  0  0  0  0  0  0  0  0
  -19.7870   13.9420  -24.1500 C   0  0  0  0  0  0  0  0  0  0  0  0
  -19.7580   14.1720  -25.5320 C   0  0  0  0  0  0  0  0  0  0  0  0
  -20.5620   15.1760  -26.0780 C   0  0  0  0  0  0  0  0  0  0  0  0
  -20.5050   15.3910  -27.5430 N   0  0  0  0  0  0  0  0  0  0  0  0
  -20.2510   14.3140  -28.5090 C   0  0  0  0  0  0  0  0  0  0  0  0
  -19.1820   14.2790  -29.0110 O   0  0  0  0  0  0  0  0  0  0  0  0
  -21.3300   13.2660  -28.8650 C   0  0  0  0  0  0  0  0  0  0  0  0
  -22.4860   12.9480  -28.1780 C   0  0  0  0  0  0  0  0  0  0  0  0
  -23.1280   12.0100  -28.8640 N   0  0  0  0  0  0  0  0  0  0  0  0
  -22.4040   11.7410  -29.9480 C   0  0  0  0  0  0  0  0  0  0  0  0
  -21.3030   12.5200  -29.9490 N   0  0  0  0  0  0  0  0  0  0  0  0
  -20.8730   16.6930  -28.0170 C   0  0  0  0  0  0  0  0  0  0  0  0
  -19.5710   17.5240  -28.2110 C   0  0  0  0  0  0  0  0  0  0  0  0
  -18.6280   17.0820  -28.8170 O   0  0  0  0  0  0  0  0  0  0  0  0
  -19.5640   18.8920  -27.6650 N   0  0  0  0  0  0  0  0  0  0  0  0
  -18.4380   19.7850  -27.7820 C   0  0  0  0  0  0  0  0  0  0  0  0
  -18.9730   21.0860  -28.3730 C   0  0  0  0  0  0  0  0  0  0  0  0
  -17.8950   22.1650  -28.4460 C   0  0  0  0  0  0  0  0  0  0  0  0
  -17.3770   22.4550  -27.0670 C   0  0  0  0  0  0  0  0  0  0  0  0
  -16.9100   21.2200  -26.3250 C   0  0  0  0  0  0  0  0  0  0  0  0
  -17.8810   20.0300  -26.3690 C   0  0  0  0  0  0  0  0  0  0  0  0
  -21.5150   16.8010  -29.3680 C   0  0  0  0  0  0  0  0  0  0  0  0
  -22.6270   16.0730  -29.6040 C   0  0  0  0  0  0  0  0  0  0  0  0
  -23.2520   16.1920  -30.8200 C   0  0  0  0  0  0  0  0  0  0  0  0
  -22.7370   17.0500  -31.7720 C   0  0  0  0  0  0  0  0  0  0  0  0
  -21.6340   17.7720  -31.5150 N   0  0  0  0  0  0  0  0  0  0  0  0
  -21.0090   17.6400  -30.3240 C   0  0  0  0  0  0  0  0  0  0  0  0
  -21.3680   15.9580  -25.2730 C   0  0  0  0  0  0  0  0  0  0  0  0
  -21.3960   15.7280  -23.8860 C   0  0  0  0  0  0  0  0  0  0  0  0
  -20.8544   15.6638  -19.9904 H   0  0  0  0  0  0  0  0  0  0  0  0
  -20.0967   16.5183  -21.3769 H   0  0  0  0  0  0  0  0  0  0  0  0
  -21.8641   16.1975  -21.3769 H   0  0  0  0  0  0  0  0  0  0  0  0
  -19.3490   13.8788  -20.1244 H   0  0  0  0  0  0  0  0  0  0  0  0
  -19.2122   12.8311  -21.5771 H   0  0  0  0  0  0  0  0  0  0  0  0
  -18.4718   14.4677  -21.5771 H   0  0  0  0  0  0  0  0  0  0  0  0
  -21.8642   13.4067  -20.3476 H   0  0  0  0  0  0  0  0  0  0  0  0
  -22.7090   13.8652  -21.8651 H   0  0  0  0  0  0  0  0  0  0  0  0
  -21.5390   12.5022  -21.8651 H   0  0  0  0  0  0  0  0  0  0  0  0
  -19.1677   13.1452  -23.7122 H   0  0  0  0  0  0  0  0  0  0  0  0
  -19.1079   13.5674  -26.1815 H   0  0  0  0  0  0  0  0  0  0  0  0
  -22.8166   13.3942  -27.2285 H   0  0  0  0  0  0  0  0  0  0  0  0
  -24.0228   11.5707  -28.6047 H   0  0  0  0  0  0  0  0  0  0  0  0
  -22.6624   11.0012  -30.7200 H   0  0  0  0  0  0  0  0  0  0  0  0
  -21.5985   17.0229  -27.2589 H   0  0  0  0  0  0  0  0  0  0  0  0
  -20.2670   19.1710  -27.2560 H   0  0  0  0  0  0  0  0  0  0  0  0
  -17.6386   19.3772  -28.4181 H   0  0  0  0  0  0  0  0  0  0  0  0
  -19.3469   20.8879  -29.3883 H   0  0  0  0  0  0  0  0  0  0  0  0
  -19.7774   21.4521  -27.7181 H   0  0  0  0  0  0  0  0  0  0  0  0
  -17.0683   21.8139  -29.0811 H   0  0  0  0  0  0  0  0  0  0  0  0
  -18.3253   23.0822  -28.8745 H   0  0  0  0  0  0  0  0  0  0  0  0
  -16.5295   23.1510  -27.1526 H   0  0  0  0  0  0  0  0  0  0  0  0
  -18.2112   22.8823  -26.4912 H   0  0  0  0  0  0  0  0  0  0  0  0
  -15.9551   20.8977  -26.7659 H   0  0  0  0  0  0  0  0  0  0  0  0
  -16.8269   21.5100  -25.2672 H   0  0  0  0  0  0  0  0  0  0  0  0
  -17.3490   19.1264  -26.0366 H   0  0  0  0  0  0  0  0  0  0  0  0
  -18.7289   20.2620  -25.7078 H   0  0  0  0  0  0  0  0  0  0  0  0
  -23.0256   15.3956  -28.8344 H   0  0  0  0  0  0  0  0  0  0  0  0
  -24.1584   15.6071  -31.0353 H   0  0  0  0  0  0  0  0  0  0  0  0
  -23.2343   17.1428  -32.7488 H   0  0  0  0  0  0  0  0  0  0  0  0
  -20.0897   18.2092  -30.1220 H   0  0  0  0  0  0  0  0  0  0  0  0
  -21.9839   16.7554  -25.7143 H   0  0  0  0  0  0  0  0  0  0  0  0
  -22.0441   16.3398  -23.2413 H   0  0  0  0  0  0  0  0  0  0  0  0
  1  2  1  0
  2  3  1  0
  2  4  1  0
  2  5  1  0
  5  6  2  0
  6  7  1  0
  7  8  2  0
  8  9  1  0
  9 10  1  0
 10 11  2  0
 10 12  1  0
 12 13  2  0
 13 14  1  0
 14 15  1  0
 15 16  2  0
  9 17  1  0
 17 18  1  0
 18 19  2  0
 18 20  1  0
 20 21  1  0
 21 22  1  0
 22 23  1  0
 23 24  1  0
 24 25  1  0
 25 26  1  0
 17 27  1  0
 27 28  2  0
 28 29  1  0
 29 30  2  0
 30 31  1  0
 31 32  2  0
  8 33  1  0
 33 34  2  0
 34  5  1  0
 16 12  1  0
 26 21  1  0
 32 27  1  0
  1 35  1  0
  1 36  1  0
  1 37  1  0
  3 38  1  0
  3 39  1  0
  3 40  1  0
  4 41  1  0
  4 42  1  0
  4 43  1  0
  6 44  1  0
  7 45  1  0
 13 46  1  0
 14 47  1  0
 15 48  1  0
 17 49  1  0
 20 50  1  0
 21 51  1  0
 22 52  1  0
 22 53  1  0
 23 54  1  0
 23 55  1  0
 24 56  1  0
 24 57  1  0
 25 58  1  0
 25 59  1  0
 26 60  1  0
 26 61  1  0
 28 62  1  0
 29 63  1  0
 30 64  1  0
 32 65  1  0
 33 66  1  0
 34 67  1  0
M  END
>  <meeko>  (3) 
{"free_energy": -9.252, "intermolecular_energy": -11.639, "internal_energy": -2.445}

$$$$

     RDKit          3D

 67 70  0  0  0  0  0  0  0  0999 V2000
  -17.1760   22.2480  -28.0880 C   0  0  0  0  0  0  0  0  0  0  0  0
  -17.3900   21.5070  -26.7650 C   0  0  0  0  0  0  0  0  0  0  0  0
  -16.0060   21.1310  -26.1960 C   0  0  0  0  0  0  0  0  0  0  0  0
  -18.0740   22.4290  -25.7590 C   0  0  0  0  0  0  0  0  0  0  0  0
  -18.3090   20.2640  -27.0590 C   0  0  0  0  0  0  0  0  0  0  0  0
  -19.5720   20.1750  -26.4620 C   0  0  0  0  0  0  0  0  0  0  0  0
  -20.3950   19.0720  -26.7240 C   0  0  0  0  0  0  0  0  0  0  0  0
  -19.9500   18.0740  -27.5950 C   0  0  0  0  0  0  0  0  0  0  0  0
  -20.8470   16.9210  -27.8480 N   0  0  0  0  0  0  0  0  0  0  0  0
  -22.1700   17.0490  -28.4720 C   0  0  0  0  0  0  0  0  0  0  0  0
  -23.0740   17.3370  -27.7680 O   0  0  0  0  0  0  0  0  0  0  0  0
  -22.3860   16.8150  -29.9850 C   0  0  0  0  0  0  0  0  0  0  0  0
  -22.0290   17.6280  -31.0440 C   0  0  0  0  0  0  0  0  0  0  0  0
  -22.3830   17.0170  -32.1690 N   0  0  0  0  0  0  0  0  0  0  0  0
  -22.9460   15.8590  -31.8340 C   0  0  0  0  0  0  0  0  0  0  0  0
  -22.9390   15.7340  -30.4920 N   0  0  0  0  0  0  0  0  0  0  0  0
  -20.3030   15.6180  -27.6030 C   0  0  0  0  0  0  0  0  0  0  0  0
  -20.2860   15.3810  -26.0650 C   0  0  0  0  0  0  0  0  0  0  0  0
  -20.6860   16.2180  -25.2960 O   0  0  0  0  0  0  0  0  0  0  0  0
  -19.8080   14.0690  -25.5960 N   0  0  0  0  0  0  0  0  0  0  0  0
  -19.7510   13.7000  -24.2030 C   0  0  0  0  0  0  0  0  0  0  0  0
  -18.6820   14.5800  -23.5620 C   0  0  0  0  0  0  0  0  0  0  0  0
  -18.5970   14.3660  -22.0520 C   0  0  0  0  0  0  0  0  0  0  0  0
  -19.9180   14.7000  -21.4210 C   0  0  0  0  0  0  0  0  0  0  0  0
  -21.0870   13.9680  -22.0440 C   0  0  0  0  0  0  0  0  0  0  0  0
  -21.1270   13.9950  -23.5800 C   0  0  0  0  0  0  0  0  0  0  0  0
  -21.0700   14.4260  -28.0930 C   0  0  0  0  0  0  0  0  0  0  0  0
  -20.6230   13.7920  -29.1970 C   0  0  0  0  0  0  0  0  0  0  0  0
  -21.2880   12.6740  -29.6350 C   0  0  0  0  0  0  0  0  0  0  0  0
  -22.3930   12.2200  -28.9400 C   0  0  0  0  0  0  0  0  0  0  0  0
  -22.8170   12.8600  -27.8390 N   0  0  0  0  0  0  0  0  0  0  0  0
  -22.1720   13.9720  -27.4200 C   0  0  0  0  0  0  0  0  0  0  0  0
  -18.7020   18.1500  -28.1850 C   0  0  0  0  0  0  0  0  0  0  0  0
  -17.8760   19.2570  -27.9210 C   0  0  0  0  0  0  0  0  0  0  0  0
  -16.8762   23.2862  -27.8824 H   0  0  0  0  0  0  0  0  0  0  0  0
  -16.3862   21.7458  -28.6659 H   0  0  0  0  0  0  0  0  0  0  0  0
  -18.1119   22.2442  -28.6659 H   0  0  0  0  0  0  0  0  0  0  0  0
  -16.0462   21.1419  -25.0968 H   0  0  0  0  0  0  0  0  0  0  0  0
  -15.7280   20.1248  -26.5428 H   0  0  0  0  0  0  0  0  0  0  0  0
  -15.2571   21.8582  -26.5428 H   0  0  0  0  0  0  0  0  0  0  0  0
  -17.8311   22.1015  -24.7374 H   0  0  0  0  0  0  0  0  0  0  0  0
  -17.7206   23.4601  -25.9073 H   0  0  0  0  0  0  0  0  0  0  0  0
  -19.1632   22.3898  -25.9073 H   0  0  0  0  0  0  0  0  0  0  0  0
  -19.9184   20.9714  -25.7869 H   0  0  0  0  0  0  0  0  0  0  0  0
  -21.3834   18.9922  -26.2480 H   0  0  0  0  0  0  0  0  0  0  0  0
  -21.5377   18.6093  -30.9685 H   0  0  0  0  0  0  0  0  0  0  0  0
  -22.2467   17.3742  -33.1254 H   0  0  0  0  0  0  0  0  0  0  0  0
  -23.3528   15.1205  -32.5405 H   0  0  0  0  0  0  0  0  0  0  0  0
  -19.3429   15.6593  -28.1382 H   0  0  0  0  0  0  0  0  0  0  0  0
  -19.5500   13.4970  -26.1820 H   0  0  0  0  0  0  0  0  0  0  0  0
  -19.5092   12.6369  -24.0567 H   0  0  0  0  0  0  0  0  0  0  0  0
  -17.7070   14.3387  -24.0106 H   0  0  0  0  0  0  0  0  0  0  0  0
  -18.9529   15.6308  -23.7423 H   0  0  0  0  0  0  0  0  0  0  0  0
  -18.3475   13.3149  -21.8446 H   0  0  0  0  0  0  0  0  0  0  0  0
  -17.8168   15.0189  -21.6338 H   0  0  0  0  0  0  0  0  0  0  0  0
  -19.8708   14.4364  -20.3541 H   0  0  0  0  0  0  0  0  0  0  0  0
  -20.0888   15.7753  -21.5779 H   0  0  0  0  0  0  0  0  0  0  0  0
  -21.0419   12.9170  -21.7224 H   0  0  0  0  0  0  0  0  0  0  0  0
  -21.9932   14.4907  -21.7039 H   0  0  0  0  0  0  0  0  0  0  0  0
  -21.8437   13.2370  -23.9290 H   0  0  0  0  0  0  0  0  0  0  0  0
  -21.4292   15.0056  -23.8921 H   0  0  0  0  0  0  0  0  0  0  0  0
  -19.7403   14.1649  -29.7371 H   0  0  0  0  0  0  0  0  0  0  0  0
  -20.9434   12.1423  -30.5342 H   0  0  0  0  0  0  0  0  0  0  0  0
  -22.9295   11.3266  -29.2921 H   0  0  0  0  0  0  0  0  0  0  0  0
  -22.5345   14.5143  -26.5343 H   0  0  0  0  0  0  0  0  0  0  0  0
  -18.3574   17.3498  -28.8565 H   0  0  0  0  0  0  0  0  0  0  0  0
  -16.8862   19.3288  -28.3955 H   0  0  0  0  0  0  0  0  0  0  0  0
  1  2  1  0
  2  3  1  0
  2  4  1  0
  2  5  1  0
  5  6  2  0
  6  7  1  0
  7  8  2  0
  8  9  1  0
  9 10  1  0
 10 11  2  0
 10 12  1  0
 12 13  2  0
 13 14  1  0
 14 15  1  0
 15 16  2  0
  9 17  1  0
 17 18  1  0
 18 19  2  0
 18 20  1  0
 20 21  1  0
 21 22  1  0
 22 23  1  0
 23 24  1  0
 24 25  1  0
 25 26  1  0
 17 27  1  0
 27 28  2  0
 28 29  1  0
 29 30  2  0
 30 31  1  0
 31 32  2  0
  8 33  1  0
 33 34  2  0
 34  5  1  0
 16 12  1  0
 26 21  1  0
 32 27  1  0
  1 35  1  0
  1 36  1  0
  1 37  1  0
  3 38  1  0
  3 39  1  0
  3 40  1  0
  4 41  1  0
  4 42  1  0
  4 43  1  0
  6 44  1  0
  7 45  1  0
 13 46  1  0
 14 47  1  0
 15 48  1  0
 17 49  1  0
 20 50  1  0
 21 51  1  0
 22 52  1  0
 22 53  1  0
 23 54  1  0
 23 55  1  0
 24 56  1  0
 24 57  1  0
 25 58  1  0
 25 59  1  0
 26 60  1  0
 26 61  1  0
 28 62  1  0
 29 63  1  0
 30 64  1  0
 32 65  1  0
 33 66  1  0
 34 67  1  0
M  END
>  <meeko>  (4) 
{"free_energy": -9.117, "intermolecular_energy": -11.503, "internal_energy": -2.767}

$$$$

     RDKit          3D

 67 70  0  0  0  0  0  0  0  0999 V2000
  -16.3020   20.7690  -26.5770 C   0  0  0  0  0  0  0  0  0  0  0  0
  -17.7510   21.1850  -26.8520 C   0  0  0  0  0  0  0  0  0  0  0  0
  -18.1760   22.1890  -25.7590 C   0  0  0  0  0  0  0  0  0  0  0  0
  -17.8400   21.8950  -28.2000 C   0  0  0  0  0  0  0  0  0  0  0  0
  -18.6250   19.8770  -26.8780 C   0  0  0  0  0  0  0  0  0  0  0  0
  -19.3800   19.5220  -25.7540 C   0  0  0  0  0  0  0  0  0  0  0  0
  -20.1640   18.3600  -25.7750 C   0  0  0  0  0  0  0  0  0  0  0  0
  -20.1940   17.5720  -26.9290 C   0  0  0  0  0  0  0  0  0  0  0  0
  -21.0320   16.3510  -26.9140 N   0  0  0  0  0  0  0  0  0  0  0  0
  -22.4120   16.3230  -26.4100 C   0  0  0  0  0  0  0  0  0  0  0  0
  -22.7430   15.3720  -25.7930 O   0  0  0  0  0  0  0  0  0  0  0  0
  -23.4010   17.4820  -26.6730 C   0  0  0  0  0  0  0  0  0  0  0  0
  -24.3720   17.9950  -25.8340 C   0  0  0  0  0  0  0  0  0  0  0  0
  -24.9660   19.0040  -26.4610 N   0  0  0  0  0  0  0  0  0  0  0  0
  -24.3910   19.1260  -27.6550 C   0  0  0  0  0  0  0  0  0  0  0  0
  -23.4250   18.1940  -27.7790 N   0  0  0  0  0  0  0  0  0  0  0  0
  -20.4970   15.1950  -27.5720 C   0  0  0  0  0  0  0  0  0  0  0  0
  -20.0100   14.1980  -26.4800 C   0  0  0  0  0  0  0  0  0  0  0  0
  -19.3780   13.2130  -26.7660 O   0  0  0  0  0  0  0  0  0  0  0  0
  -20.3120   14.5410  -25.0800 N   0  0  0  0  0  0  0  0  0  0  0  0
  -19.9100   13.7240  -23.9610 C   0  0  0  0  0  0  0  0  0  0  0  0
  -18.6260   14.3400  -23.4110 C   0  0  0  0  0  0  0  0  0  0  0  0
  -18.1510   13.6310  -22.1450 C   0  0  0  0  0  0  0  0  0  0  0  0
  -19.2090   13.7290  -21.0840 C   0  0  0  0  0  0  0  0  0  0  0  0
  -20.5700   13.2460  -21.5410 C   0  0  0  0  0  0  0  0  0  0  0  0
  -21.0270   13.7890  -22.9040 C   0  0  0  0  0  0  0  0  0  0  0  0
  -21.4310   14.3420  -28.3780 C   0  0  0  0  0  0  0  0  0  0  0  0
  -21.6440   14.6760  -29.6680 C   0  0  0  0  0  0  0  0  0  0  0  0
  -22.4620   13.8820  -30.4330 C   0  0  0  0  0  0  0  0  0  0  0  0
  -23.0440   12.7610  -29.8720 C   0  0  0  0  0  0  0  0  0  0  0  0
  -22.8120   12.4410  -28.5890 N   0  0  0  0  0  0  0  0  0  0  0  0
  -22.0210   13.2350  -27.8330 C   0  0  0  0  0  0  0  0  0  0  0  0
  -19.4470   17.9120  -28.0410 C   0  0  0  0  0  0  0  0  0  0  0  0
  -18.6610   19.0780  -28.0200 C   0  0  0  0  0  0  0  0  0  0  0  0
  -16.1342   20.7208  -25.4909 H   0  0  0  0  0  0  0  0  0  0  0  0
  -16.1137   19.7805  -27.0213 H   0  0  0  0  0  0  0  0  0  0  0  0
  -15.6180   21.5071  -27.0213 H   0  0  0  0  0  0  0  0  0  0  0  0
  -17.9907   21.7513  -24.7670 H   0  0  0  0  0  0  0  0  0  0  0  0
  -17.5930   23.1157  -25.8656 H   0  0  0  0  0  0  0  0  0  0  0  0
  -19.2472   22.4154  -25.8656 H   0  0  0  0  0  0  0  0  0  0  0  0
  -17.9753   22.9745  -28.0376 H   0  0  0  0  0  0  0  0  0  0  0  0
  -16.9132   21.7228  -28.7670 H   0  0  0  0  0  0  0  0  0  0  0  0
  -18.6956   21.4994  -28.7670 H   0  0  0  0  0  0  0  0  0  0  0  0
  -19.3581   20.1547  -24.8544 H   0  0  0  0  0  0  0  0  0  0  0  0
  -20.7507   18.0708  -24.8906 H   0  0  0  0  0  0  0  0  0  0  0  0
  -24.6111   17.6313  -24.8238 H   0  0  0  0  0  0  0  0  0  0  0  0
  -25.7314   19.5855  -26.0910 H   0  0  0  0  0  0  0  0  0  0  0  0
  -24.6611   19.8694  -28.4194 H   0  0  0  0  0  0  0  0  0  0  0  0
  -19.7519   15.6344  -28.2516 H   0  0  0  0  0  0  0  0  0  0  0  0
  -20.7500   15.2640  -24.9230 H   0  0  0  0  0  0  0  0  0  0  0  0
  -19.7406   12.6742  -24.2425 H   0  0  0  0  0  0  0  0  0  0  0  0
  -17.8396   14.2656  -24.1765 H   0  0  0  0  0  0  0  0  0  0  0  0
  -18.8335   15.3898  -23.1562 H   0  0  0  0  0  0  0  0  0  0  0  0
  -17.9556   12.5722  -22.3701 H   0  0  0  0  0  0  0  0  0  0  0  0
  -17.2277   14.1080  -21.7845 H   0  0  0  0  0  0  0  0  0  0  0  0
  -18.8953   13.1214  -20.2224 H   0  0  0  0  0  0  0  0  0  0  0  0
  -19.3128   14.7938  -20.8282 H   0  0  0  0  0  0  0  0  0  0  0  0
  -20.5393   12.1482  -21.6038 H   0  0  0  0  0  0  0  0  0  0  0  0
  -21.2936   13.6207  -20.8021 H   0  0  0  0  0  0  0  0  0  0  0  0
  -21.8815   13.1916  -23.2547 H   0  0  0  0  0  0  0  0  0  0  0  0
  -21.3041   14.8451  -22.7706 H   0  0  0  0  0  0  0  0  0  0  0  0
  -21.1699   15.5699  -30.0996 H   0  0  0  0  0  0  0  0  0  0  0  0
  -22.6530   14.1365  -31.4860 H   0  0  0  0  0  0  0  0  0  0  0  0
  -23.7029   12.1256  -30.4819 H   0  0  0  0  0  0  0  0  0  0  0  0
  -21.8511   12.9895  -26.7743 H   0  0  0  0  0  0  0  0  0  0  0  0
  -19.4671   17.2744  -28.9371 H   0  0  0  0  0  0  0  0  0  0  0  0
  -18.0736   19.3601  -28.9062 H   0  0  0  0  0  0  0  0  0  0  0  0
  1  2  1  0
  2  3  1  0
  2  4  1  0
  2  5  1  0
  5  6  2  0
  6  7  1  0
  7  8  2  0
  8  9  1  0
  9 10  1  0
 10 11  2  0
 10 12  1  0
 12 13  2  0
 13 14  1  0
 14 15  1  0
 15 16  2  0
  9 17  1  0
 17 18  1  0
 18 19  2  0
 18 20  1  0
 20 21  1  0
 21 22  1  0
 22 23  1  0
 23 24  1  0
 24 25  1  0
 25 26  1  0
 17 27  1  0
 27 28  2  0
 28 29  1  0
 29 30  2  0
 30 31  1  0
 31 32  2  0
  8 33  1  0
 33 34  2  0
 34  5  1  0
 16 12  1  0
 26 21  1  0
 32 27  1  0
  1 35  1  0
  1 36  1  0
  1 37  1  0
  3 38  1  0
  3 39  1  0
  3 40  1  0
  4 41  1  0
  4 42  1  0
  4 43  1  0
  6 44  1  0
  7 45  1  0
 13 46  1  0
 14 47  1  0
 15 48  1  0
 17 49  1  0
 20 50  1  0
 21 51  1  0
 22 52  1  0
 22 53  1  0
 23 54  1  0
 23 55  1  0
 24 56  1  0
 24 57  1  0
 25 58  1  0
 25 59  1  0
 26 60  1  0
 26 61  1  0
 28 62  1  0
 29 63  1  0
 30 64  1  0
 32 65  1  0
 33 66  1  0
 34 67  1  0
M  END
>  <meeko>  (5) 
{"free_energy": -8.996, "intermolecular_energy": -11.383, "internal_energy": -3.29}

$$$$

     RDKit          3D

 67 70  0  0  0  0  0  0  0  0999 V2000
  -19.3780   13.3860  -28.9480 C   0  0  0  0  0  0  0  0  0  0  0  0
  -20.7440   14.0580  -28.7740 C   0  0  0  0  0  0  0  0  0  0  0  0
  -21.6460   13.6200  -29.9470 C   0  0  0  0  0  0  0  0  0  0  0  0
  -21.3950   13.5820  -27.4790 C   0  0  0  0  0  0  0  0  0  0  0  0
  -20.5050   15.6120  -28.7110 C   0  0  0  0  0  0  0  0  0  0  0  0
  -21.5910   16.4770  -28.5310 C   0  0  0  0  0  0  0  0  0  0  0  0
  -21.3830   17.8610  -28.4690 C   0  0  0  0  0  0  0  0  0  0  0  0
  -20.0840   18.3660  -28.5750 C   0  0  0  0  0  0  0  0  0  0  0  0
  -19.9020   19.8350  -28.5080 N   0  0  0  0  0  0  0  0  0  0  0  0
  -20.0340   20.7200  -29.6720 C   0  0  0  0  0  0  0  0  0  0  0  0
  -19.8080   21.8680  -29.5070 O   0  0  0  0  0  0  0  0  0  0  0  0
  -20.4550   20.1860  -31.0610 C   0  0  0  0  0  0  0  0  0  0  0  0
  -20.1280   20.6770  -32.3100 C   0  0  0  0  0  0  0  0  0  0  0  0
  -20.6860   19.8890  -33.2220 N   0  0  0  0  0  0  0  0  0  0  0  0
  -21.3440   18.9320  -32.5720 C   0  0  0  0  0  0  0  0  0  0  0  0
  -21.1940   19.1130  -31.2450 N   0  0  0  0  0  0  0  0  0  0  0  0
  -19.7450   20.4040  -27.2020 C   0  0  0  0  0  0  0  0  0  0  0  0
  -19.5220   19.2410  -26.1910 C   0  0  0  0  0  0  0  0  0  0  0  0
  -18.4180   18.9320  -25.8220 O   0  0  0  0  0  0  0  0  0  0  0  0
  -20.7250   18.5720  -25.6670 N   0  0  0  0  0  0  0  0  0  0  0  0
  -20.6770   17.4920  -24.7120 C   0  0  0  0  0  0  0  0  0  0  0  0
  -22.0910   16.9220  -24.6270 C   0  0  0  0  0  0  0  0  0  0  0  0
  -22.1560   15.6900  -23.7270 C   0  0  0  0  0  0  0  0  0  0  0  0
  -21.2530   14.6210  -24.2700 C   0  0  0  0  0  0  0  0  0  0  0  0
  -19.8330   15.0910  -24.5040 C   0  0  0  0  0  0  0  0  0  0  0  0
  -19.7060   16.4270  -25.2530 C   0  0  0  0  0  0  0  0  0  0  0  0
  -18.5500   21.2730  -26.9450 C   0  0  0  0  0  0  0  0  0  0  0  0
  -17.4460   21.0740  -27.6950 C   0  0  0  0  0  0  0  0  0  0  0  0
  -16.3580   21.8870  -27.5030 C   0  0  0  0  0  0  0  0  0  0  0  0
  -16.4130   22.8900  -26.5530 C   0  0  0  0  0  0  0  0  0  0  0  0
  -17.5240   23.0770  -25.8230 N   0  0  0  0  0  0  0  0  0  0  0  0
  -18.5880   22.2630  -26.0010 C   0  0  0  0  0  0  0  0  0  0  0  0
  -19.0060   17.5210  -28.7600 C   0  0  0  0  0  0  0  0  0  0  0  0
  -19.2150   16.1310  -28.8220 C   0  0  0  0  0  0  0  0  0  0  0  0
  -18.9454   13.1732  -27.9593 H   0  0  0  0  0  0  0  0  0  0  0  0
  -19.5004   12.4453  -29.5048 H   0  0  0  0  0  0  0  0  0  0  0  0
  -18.7075   14.0571  -29.5048 H   0  0  0  0  0  0  0  0  0  0  0  0
  -22.5695   13.1716  -29.5518 H   0  0  0  0  0  0  0  0  0  0  0  0
  -21.8981   14.4960  -30.5627 H   0  0  0  0  0  0  0  0  0  0  0  0
  -21.1134   12.8802  -30.5627 H   0  0  0  0  0  0  0  0  0  0  0  0
  -20.8408   13.9872  -26.6195 H   0  0  0  0  0  0  0  0  0  0  0  0
  -22.4369   13.9328  -27.4419 H   0  0  0  0  0  0  0  0  0  0  0  0
  -21.3767   12.4828  -27.4419 H   0  0  0  0  0  0  0  0  0  0  0  0
  -22.6085   16.0695  -28.4382 H   0  0  0  0  0  0  0  0  0  0  0  0
  -22.2348   18.5445  -28.3380 H   0  0  0  0  0  0  0  0  0  0  0  0
  -19.5127   21.5657  -32.5138 H   0  0  0  0  0  0  0  0  0  0  0  0
  -20.6214   19.9984  -34.2441 H   0  0  0  0  0  0  0  0  0  0  0  0
  -21.9193   18.1215  -33.0433 H   0  0  0  0  0  0  0  0  0  0  0  0
  -20.6511   21.0199  -27.1032 H   0  0  0  0  0  0  0  0  0  0  0  0
  -21.4940   18.8390  -25.9450 H   0  0  0  0  0  0  0  0  0  0  0  0
  -20.3363   17.8201  -23.7189 H   0  0  0  0  0  0  0  0  0  0  0  0
  -22.7617   17.6940  -24.2218 H   0  0  0  0  0  0  0  0  0  0  0  0
  -22.3982   16.6208  -25.6394 H   0  0  0  0  0  0  0  0  0  0  0  0
  -21.8324   15.9613  -22.7113 H   0  0  0  0  0  0  0  0  0  0  0  0
  -23.1894   15.3142  -23.6965 H   0  0  0  0  0  0  0  0  0  0  0  0
  -21.2300   13.7873  -23.5528 H   0  0  0  0  0  0  0  0  0  0  0  0
  -21.6592   14.3200  -25.2469 H   0  0  0  0  0  0  0  0  0  0  0  0
  -19.3443   15.2010  -23.5247 H   0  0  0  0  0  0  0  0  0  0  0  0
  -19.3601   14.3328  -25.1455 H   0  0  0  0  0  0  0  0  0  0  0  0
  -18.6763   16.7981  -25.1432 H   0  0  0  0  0  0  0  0  0  0  0  0
  -19.9565   16.2471  -26.3089 H   0  0  0  0  0  0  0  0  0  0  0  0
  -17.4190   20.2728  -28.4482 H   0  0  0  0  0  0  0  0  0  0  0  0
  -15.4467   21.7417  -28.1016 H   0  0  0  0  0  0  0  0  0  0  0  0
  -15.5397   23.5397  -26.3941 H   0  0  0  0  0  0  0  0  0  0  0  0
  -19.4889   22.3969  -25.3841 H   0  0  0  0  0  0  0  0  0  0  0  0
  -17.9907   17.9328  -28.8582 H   0  0  0  0  0  0  0  0  0  0  0  0
  -18.3599   15.4526  -28.9582 H   0  0  0  0  0  0  0  0  0  0  0  0
  1  2  1  0
  2  3  1  0
  2  4  1  0
  2  5  1  0
  5  6  2  0
  6  7  1  0
  7  8  2  0
  8  9  1  0
  9 10  1  0
 10 11  2  0
 10 12  1  0
 12 13  2  0
 13 14  1  0
 14 15  1  0
 15 16  2  0
  9 17  1  0
 17 18  1  0
 18 19  2  0
 18 20  1  0
 20 21  1  0
 21 22  1  0
 22 23  1  0
 23 24  1  0
 24 25  1  0
 25 26  1  0
 17 27  1  0
 27 28  2  0
 28 29  1  0
 29 30  2  0
 30 31  1  0
 31 32  2  0
  8 33  1  0
 33 34  2  0
 34  5  1  0
 16 12  1  0
 26 21  1  0
 32 27  1  0
  1 35  1  0
  1 36  1  0
  1 37  1  0
  3 38  1  0
  3 39  1  0
  3 40  1  0
  4 41  1  0
  4 42  1  0
  4 43  1  0
  6 44  1  0
  7 45  1  0
 13 46  1  0
 14 47  1  0
 15 48  1  0
 17 49  1  0
 20 50  1  0
 21 51  1  0
 22 52  1  0
 22 53  1  0
 23 54  1  0
 23 55  1  0
 24 56  1  0
 24 57  1  0
 25 58  1  0
 25 59  1  0
 26 60  1  0
 26 61  1  0
 28 62  1  0
 29 63  1  0
 30 64  1  0
 32 65  1  0
 33 66  1  0
 34 67  1  0
M  END
>  <meeko>  (6) 
{"free_energy": -8.922, "intermolecular_energy": -11.308, "internal_energy": -3.31}

$$$$

     RDKit          3D

 67 70  0  0  0  0  0  0  0  0999 V2000
  -16.0030   21.1850  -26.1970 C   0  0  0  0  0  0  0  0  0  0  0  0
  -17.3240   21.6140  -26.8450 C   0  0  0  0  0  0  0  0  0  0  0  0
  -17.8340   22.8700  -26.1060 C   0  0  0  0  0  0  0  0  0  0  0  0
  -17.0870   21.9930  -28.3040 C   0  0  0  0  0  0  0  0  0  0  0  0
  -18.3120   20.3930  -26.7640 C   0  0  0  0  0  0  0  0  0  0  0  0
  -18.3760   19.4780  -27.8230 C   0  0  0  0  0  0  0  0  0  0  0  0
  -19.2520   18.3870  -27.7540 C   0  0  0  0  0  0  0  0  0  0  0  0
  -20.0460   18.2130  -26.6170 C   0  0  0  0  0  0  0  0  0  0  0  0
  -20.9610   17.0480  -26.5800 N   0  0  0  0  0  0  0  0  0  0  0  0
  -22.4180   17.1690  -26.4420 C   0  0  0  0  0  0  0  0  0  0  0  0
  -23.0730   16.9230  -27.3940 O   0  0  0  0  0  0  0  0  0  0  0  0
  -23.0800   17.6030  -25.1140 C   0  0  0  0  0  0  0  0  0  0  0  0
  -24.1630   18.4400  -24.9210 C   0  0  0  0  0  0  0  0  0  0  0  0
  -24.4030   18.5080  -23.6170 N   0  0  0  0  0  0  0  0  0  0  0  0
  -23.5040   17.7430  -23.0040 C   0  0  0  0  0  0  0  0  0  0  0  0
  -22.6960   17.1830  -23.9270 N   0  0  0  0  0  0  0  0  0  0  0  0
  -20.3810   15.7660  -26.8510 C   0  0  0  0  0  0  0  0  0  0  0  0
  -20.1270   15.0520  -25.4910 C   0  0  0  0  0  0  0  0  0  0  0  0
  -19.7310   13.9150  -25.4430 O   0  0  0  0  0  0  0  0  0  0  0  0
  -20.3450   15.8450  -24.2690 N   0  0  0  0  0  0  0  0  0  0  0  0
  -20.1350   15.3250  -22.9410 C   0  0  0  0  0  0  0  0  0  0  0  0
  -21.2410   14.3020  -22.6930 C   0  0  0  0  0  0  0  0  0  0  0  0
  -21.0700   13.5890  -21.3540 C   0  0  0  0  0  0  0  0  0  0  0  0
  -19.7530   12.8680  -21.3320 C   0  0  0  0  0  0  0  0  0  0  0  0
  -18.5730   13.7550  -21.6700 C   0  0  0  0  0  0  0  0  0  0  0  0
  -18.7590   14.6370  -22.9150 C   0  0  0  0  0  0  0  0  0  0  0  0
  -21.2090   14.7530  -27.5850 C   0  0  0  0  0  0  0  0  0  0  0  0
  -20.9740   14.5740  -28.9020 C   0  0  0  0  0  0  0  0  0  0  0  0
  -21.6920   13.6210  -29.5800 C   0  0  0  0  0  0  0  0  0  0  0  0
  -22.6340   12.8670  -28.9060 C   0  0  0  0  0  0  0  0  0  0  0  0
  -22.8470   13.0550  -27.5930 N   0  0  0  0  0  0  0  0  0  0  0  0
  -22.1510   14.0070  -26.9310 C   0  0  0  0  0  0  0  0  0  0  0  0
  -19.9940   19.1130  -25.5700 C   0  0  0  0  0  0  0  0  0  0  0  0
  -19.1150   20.2100  -25.6390 C   0  0  0  0  0  0  0  0  0  0  0  0
  -16.1040   21.2178  -25.1021 H   0  0  0  0  0  0  0  0  0  0  0  0
  -15.7559   20.1604  -26.5119 H   0  0  0  0  0  0  0  0  0  0  0  0
  -15.2010   21.8689  -26.5119 H   0  0  0  0  0  0  0  0  0  0  0  0
  -17.7684   22.7084  -25.0199 H   0  0  0  0  0  0  0  0  0  0  0  0
  -17.2163   23.7361  -26.3858 H   0  0  0  0  0  0  0  0  0  0  0  0
  -18.8807   23.0604  -26.3858 H   0  0  0  0  0  0  0  0  0  0  0  0
  -16.5043   22.9248  -28.3508 H   0  0  0  0  0  0  0  0  0  0  0  0
  -16.5314   21.1875  -28.8065 H   0  0  0  0  0  0  0  0  0  0  0  0
  -18.0544   22.1399  -28.8065 H   0  0  0  0  0  0  0  0  0  0  0  0
  -17.7384   19.6163  -28.7086 H   0  0  0  0  0  0  0  0  0  0  0  0
  -19.3145   17.6728  -28.5882 H   0  0  0  0  0  0  0  0  0  0  0  0
  -24.7273   18.9590  -25.7098 H   0  0  0  0  0  0  0  0  0  0  0  0
  -25.1493   19.0536  -23.1629 H   0  0  0  0  0  0  0  0  0  0  0  0
  -23.4312   17.5913  -21.9169 H   0  0  0  0  0  0  0  0  0  0  0  0
  -19.5149   16.0271  -27.4768 H   0  0  0  0  0  0  0  0  0  0  0  0
  -20.6110   16.6580  -24.3530 H   0  0  0  0  0  0  0  0  0  0  0  0
  -20.1602   16.1101  -22.1710 H   0  0  0  0  0  0  0  0  0  0  0  0
  -22.2115   14.8198  -22.6984 H   0  0  0  0  0  0  0  0  0  0  0  0
  -21.1895   13.5456  -23.4900 H   0  0  0  0  0  0  0  0  0  0  0  0
  -21.0964   14.3280  -20.5397 H   0  0  0  0  0  0  0  0  0  0  0  0
  -21.8859   12.8636  -21.2195 H   0  0  0  0  0  0  0  0  0  0  0  0
  -19.5998   12.4535  -20.3247 H   0  0  0  0  0  0  0  0  0  0  0  0
  -19.8001   12.0846  -22.1027 H   0  0  0  0  0  0  0  0  0  0  0  0
  -18.3842   14.4142  -20.8099 H   0  0  0  0  0  0  0  0  0  0  0  0
  -17.7347   13.0791  -21.8945 H   0  0  0  0  0  0  0  0  0  0  0  0
  -17.9765   15.4101  -22.9213 H   0  0  0  0  0  0  0  0  0  0  0  0
  -18.6893   13.9887  -23.8010 H   0  0  0  0  0  0  0  0  0  0  0  0
  -20.2197   15.1818  -29.4231 H   0  0  0  0  0  0  0  0  0  0  0  0
  -21.5187   13.4581  -30.6540 H   0  0  0  0  0  0  0  0  0  0  0  0
  -23.2142   12.1066  -29.4492 H   0  0  0  0  0  0  0  0  0  0  0  0
  -22.3431   14.1822  -25.8622 H   0  0  0  0  0  0  0  0  0  0  0  0
  -20.6358   18.9730  -24.6877 H   0  0  0  0  0  0  0  0  0  0  0  0
  -19.0614   20.9241  -24.8040 H   0  0  0  0  0  0  0  0  0  0  0  0
  1  2  1  0
  2  3  1  0
  2  4  1  0
  2  5  1  0
  5  6  2  0
  6  7  1  0
  7  8  2  0
  8  9  1  0
  9 10  1  0
 10 11  2  0
 10 12  1  0
 12 13  2  0
 13 14  1  0
 14 15  1  0
 15 16  2  0
  9 17  1  0
 17 18  1  0
 18 19  2  0
 18 20  1  0
 20 21  1  0
 21 22  1  0
 22 23  1  0
 23 24  1  0
 24 25  1  0
 25 26  1  0
 17 27  1  0
 27 28  2  0
 28 29  1  0
 29 30  2  0
 30 31  1  0
 31 32  2  0
  8 33  1  0
 33 34  2  0
 34  5  1  0
 16 12  1  0
 26 21  1  0
 32 27  1  0
  1 35  1  0
  1 36  1  0
  1 37  1  0
  3 38  1  0
  3 39  1  0
  3 40  1  0
  4 41  1  0
  4 42  1  0
  4 43  1  0
  6 44  1  0
  7 45  1  0
 13 46  1  0
 14 47  1  0
 15 48  1  0
 17 49  1  0
 20 50  1  0
 21 51  1  0
 22 52  1  0
 22 53  1  0
 23 54  1  0
 23 55  1  0
 24 56  1  0
 24 57  1  0
 25 58  1  0
 25 59  1  0
 26 60  1  0
 26 61  1  0
 28 62  1  0
 29 63  1  0
 30 64  1  0
 32 65  1  0
 33 66  1  0
 34 67  1  0
M  END
>  <meeko>  (7) 
{"free_energy": -8.796, "intermolecular_energy": -11.182, "internal_energy": -3.402}

$$$$

     RDKit          3D

 67 70  0  0  0  0  0  0  0  0999 V2000
  -21.0790   18.4870  -30.8830 C   0  0  0  0  0  0  0  0  0  0  0  0
  -22.1170   17.4950  -30.3490 C   0  0  0  0  0  0  0  0  0  0  0  0
  -23.5150   18.1290  -30.5160 C   0  0  0  0  0  0  0  0  0  0  0  0
  -22.0830   16.2130  -31.1760 C   0  0  0  0  0  0  0  0  0  0  0  0
  -21.7450   17.1760  -28.8550 C   0  0  0  0  0  0  0  0  0  0  0  0
  -22.7530   17.1070  -27.8850 C   0  0  0  0  0  0  0  0  0  0  0  0
  -22.4280   16.8180  -26.5540 C   0  0  0  0  0  0  0  0  0  0  0  0
  -21.0930   16.5860  -26.2070 C   0  0  0  0  0  0  0  0  0  0  0  0
  -20.7860   16.2850  -24.7890 N   0  0  0  0  0  0  0  0  0  0  0  0
  -20.4390   17.3150  -23.8020 C   0  0  0  0  0  0  0  0  0  0  0  0
  -20.6150   17.0530  -22.6630 O   0  0  0  0  0  0  0  0  0  0  0  0
  -19.8720   18.6910  -24.2210 C   0  0  0  0  0  0  0  0  0  0  0  0
  -20.1200   19.9330  -23.6660 C   0  0  0  0  0  0  0  0  0  0  0  0
  -19.3960   20.8290  -24.3260 N   0  0  0  0  0  0  0  0  0  0  0  0
  -18.7140   20.1790  -25.2660 C   0  0  0  0  0  0  0  0  0  0  0  0
  -19.0030   18.8650  -25.1930 N   0  0  0  0  0  0  0  0  0  0  0  0
  -20.9990   14.9350  -24.3580 C   0  0  0  0  0  0  0  0  0  0  0  0
  -20.7780   13.9960  -25.5800 C   0  0  0  0  0  0  0  0  0  0  0  0
  -19.7550   13.3760  -25.7190 O   0  0  0  0  0  0  0  0  0  0  0  0
  -21.8970   13.8610  -26.5290 N   0  0  0  0  0  0  0  0  0  0  0  0
  -21.8460   13.0160  -27.6970 C   0  0  0  0  0  0  0  0  0  0  0  0
  -23.1280   13.2790  -28.4810 C   0  0  0  0  0  0  0  0  0  0  0  0
  -23.1500   12.5240  -29.8080 C   0  0  0  0  0  0  0  0  0  0  0  0
  -21.9870   12.9560  -30.6530 C   0  0  0  0  0  0  0  0  0  0  0  0
  -20.6520   12.8450  -29.9470 C   0  0  0  0  0  0  0  0  0  0  0  0
  -20.6180   13.4320  -28.5270 C   0  0  0  0  0  0  0  0  0  0  0  0
  -20.0550   14.3560  -23.3460 C   0  0  0  0  0  0  0  0  0  0  0  0
  -18.7620   14.7420  -23.3890 C   0  0  0  0  0  0  0  0  0  0  0  0
  -17.8930   14.2550  -22.4450 C   0  0  0  0  0  0  0  0  0  0  0  0
  -18.3550   13.3880  -21.4740 C   0  0  0  0  0  0  0  0  0  0  0  0
  -19.6470   13.0230  -21.4430 N   0  0  0  0  0  0  0  0  0  0  0  0
  -20.4980   13.4890  -22.3850 C   0  0  0  0  0  0  0  0  0  0  0  0
  -20.0910   16.6570  -27.1560 C   0  0  0  0  0  0  0  0  0  0  0  0
  -20.4180   16.9470  -28.4920 C   0  0  0  0  0  0  0  0  0  0  0  0
  -20.5692   18.9742  -30.0388 H   0  0  0  0  0  0  0  0  0  0  0  0
  -20.3407   17.9502  -31.4968 H   0  0  0  0  0  0  0  0  0  0  0  0
  -21.5818   19.2489  -31.4968 H   0  0  0  0  0  0  0  0  0  0  0  0
  -23.9491   18.3259  -29.5246 H   0  0  0  0  0  0  0  0  0  0  0  0
  -23.4249   19.0744  -31.0712 H   0  0  0  0  0  0  0  0  0  0  0  0
  -24.1668   17.4384  -31.0712 H   0  0  0  0  0  0  0  0  0  0  0  0
  -22.0599   15.3431  -30.5031 H   0  0  0  0  0  0  0  0  0  0  0  0
  -22.9801   16.1621  -31.8105 H   0  0  0  0  0  0  0  0  0  0  0  0
  -21.1845   16.2097  -31.8105 H   0  0  0  0  0  0  0  0  0  0  0  0
  -23.8015   17.2801  -28.1692 H   0  0  0  0  0  0  0  0  0  0  0  0
  -23.2160   16.7738  -25.7877 H   0  0  0  0  0  0  0  0  0  0  0  0
  -20.7980   20.1419  -22.8254 H   0  0  0  0  0  0  0  0  0  0  0  0
  -19.3673   21.8423  -24.1438 H   0  0  0  0  0  0  0  0  0  0  0  0
  -18.0242   20.6410  -25.9876 H   0  0  0  0  0  0  0  0  0  0  0  0
  -22.0022   14.9863  -23.9097 H   0  0  0  0  0  0  0  0  0  0  0  0
  -22.6140   14.3090  -26.3790 H   0  0  0  0  0  0  0  0  0  0  0  0
  -21.7650   11.9485  -27.4444 H   0  0  0  0  0  0  0  0  0  0  0  0
  -23.9877   12.9574  -27.8748 H   0  0  0  0  0  0  0  0  0  0  0  0
  -23.1778   14.3556  -28.7009 H   0  0  0  0  0  0  0  0  0  0  0  0
  -23.0810   11.4432  -29.6154 H   0  0  0  0  0  0  0  0  0  0  0  0
  -24.0883   12.7446  -30.3381 H   0  0  0  0  0  0  0  0  0  0  0  0
  -21.9579   12.3251  -31.5536 H   0  0  0  0  0  0  0  0  0  0  0  0
  -22.1386   14.0189  -30.8923 H   0  0  0  0  0  0  0  0  0  0  0  0
  -20.3877   11.7792  -29.8822 H   0  0  0  0  0  0  0  0  0  0  0  0
  -19.9396   13.4360  -30.5413 H   0  0  0  0  0  0  0  0  0  0  0  0
  -19.7096   13.0768  -28.0184 H   0  0  0  0  0  0  0  0  0  0  0  0
  -20.6247   14.5285  -28.6143 H   0  0  0  0  0  0  0  0  0  0  0  0
  -18.4109   15.4352  -24.1676 H   0  0  0  0  0  0  0  0  0  0  0  0
  -16.8344   14.5535  -22.4615 H   0  0  0  0  0  0  0  0  0  0  0  0
  -17.6586   12.9931  -20.7196 H   0  0  0  0  0  0  0  0  0  0  0  0
  -21.5506   13.1697  -22.3785 H   0  0  0  0  0  0  0  0  0  0  0  0
  -19.0431   16.4875  -26.8675 H   0  0  0  0  0  0  0  0  0  0  0  0
  -19.6252   16.9934  -29.2531 H   0  0  0  0  0  0  0  0  0  0  0  0
  1  2  1  0
  2  3  1  0
  2  4  1  0
  2  5  1  0
  5  6  2  0
  6  7  1  0
  7  8  2  0
  8  9  1  0
  9 10  1  0
 10 11  2  0
 10 12  1  0
 12 13  2  0
 13 14  1  0
 14 15  1  0
 15 16  2  0
  9 17  1  0
 17 18  1  0
 18 19  2  0
 18 20  1  0
 20 21  1  0
 21 22  1  0
 22 23  1  0
 23 24  1  0
 24 25  1  0
 25 26  1  0
 17 27  1  0
 27 28  2  0
 28 29  1  0
 29 30  2  0
 30 31  1  0
 31 32  2  0
  8 33  1  0
 33 34  2  0
 34  5  1  0
 16 12  1  0
 26 21  1  0
 32 27  1  0
  1 35  1  0
  1 36  1  0
  1 37  1  0
  3 38  1  0
  3 39  1  0
  3 40  1  0
  4 41  1  0
  4 42  1  0
  4 43  1  0
  6 44  1  0
  7 45  1  0
 13 46  1  0
 14 47  1  0
 15 48  1  0
 17 49  1  0
 20 50  1  0
 21 51  1  0
 22 52  1  0
 22 53  1  0
 23 54  1  0
 23 55  1  0
 24 56  1  0
 24 57  1  0
 25 58  1  0
 25 59  1  0
 26 60  1  0
 26 61  1  0
 28 62  1  0
 29 63  1  0
 30 64  1  0
 32 65  1  0
 33 66  1  0
 34 67  1  0
M  END
>  <meeko>  (8) 
{"free_energy": -8.517, "intermolecular_energy": -10.904, "internal_energy": -3.219}

$$$$

     RDKit          3D

 67 70  0  0  0  0  0  0  0  0999 V2000
  -22.0760   16.1840  -31.4040 C   0  0  0  0  0  0  0  0  0  0  0  0
  -22.1620   17.5200  -30.6590 C   0  0  0  0  0  0  0  0  0  0  0  0
  -21.2530   18.5340  -31.3860 C   0  0  0  0  0  0  0  0  0  0  0  0
  -23.5920   18.0510  -30.7100 C   0  0  0  0  0  0  0  0  0  0  0  0
  -21.7430   17.2580  -29.1650 C   0  0  0  0  0  0  0  0  0  0  0  0
  -20.4240   16.8980  -28.8640 C   0  0  0  0  0  0  0  0  0  0  0  0
  -20.0460   16.6690  -27.5350 C   0  0  0  0  0  0  0  0  0  0  0  0
  -20.9910   16.8170  -26.5160 C   0  0  0  0  0  0  0  0  0  0  0  0
  -20.5550   16.5650  -25.1220 N   0  0  0  0  0  0  0  0  0  0  0  0
  -19.9480   17.5930  -24.2670 C   0  0  0  0  0  0  0  0  0  0  0  0
  -19.0070   18.1650  -24.6940 O   0  0  0  0  0  0  0  0  0  0  0  0
  -20.5050   17.9200  -22.8620 C   0  0  0  0  0  0  0  0  0  0  0  0
  -20.1270   18.9290  -21.9970 C   0  0  0  0  0  0  0  0  0  0  0  0
  -20.8930   18.8520  -20.9140 N   0  0  0  0  0  0  0  0  0  0  0  0
  -21.7250   17.8280  -21.0870 C   0  0  0  0  0  0  0  0  0  0  0  0
  -21.4890   17.2620  -22.2880 N   0  0  0  0  0  0  0  0  0  0  0  0
  -20.8990   15.2920  -24.5610 C   0  0  0  0  0  0  0  0  0  0  0  0
  -20.7690   14.2180  -25.6820 C   0  0  0  0  0  0  0  0  0  0  0  0
  -19.8370   13.4560  -25.7180 O   0  0  0  0  0  0  0  0  0  0  0  0
  -21.8630   14.1440  -26.6650 N   0  0  0  0  0  0  0  0  0  0  0  0
  -21.8910   13.1920  -27.7480 C   0  0  0  0  0  0  0  0  0  0  0  0
  -23.1280   13.5150  -28.5820 C   0  0  0  0  0  0  0  0  0  0  0  0
  -23.2160   12.6440  -29.8330 C   0  0  0  0  0  0  0  0  0  0  0  0
  -22.0030   12.8680  -30.6890 C   0  0  0  0  0  0  0  0  0  0  0  0
  -20.6960   12.6830  -29.9470 C   0  0  0  0  0  0  0  0  0  0  0  0
  -20.6160   13.3940  -28.5870 C   0  0  0  0  0  0  0  0  0  0  0  0
  -20.0170   14.7270  -23.4870 C   0  0  0  0  0  0  0  0  0  0  0  0
  -20.6050   14.1120  -22.4400 C   0  0  0  0  0  0  0  0  0  0  0  0
  -19.8120   13.5520  -21.4700 C   0  0  0  0  0  0  0  0  0  0  0  0
  -18.4370   13.6270  -21.5830 C   0  0  0  0  0  0  0  0  0  0  0  0
  -17.8710   14.2370  -22.6380 N   0  0  0  0  0  0  0  0  0  0  0  0
  -18.6540   14.8030  -23.5830 C   0  0  0  0  0  0  0  0  0  0  0  0
  -22.2960   17.1670  -26.8030 C   0  0  0  0  0  0  0  0  0  0  0  0
  -22.6760   17.3970  -28.1380 C   0  0  0  0  0  0  0  0  0  0  0  0
  -22.0230   15.3610  -30.6761 H   0  0  0  0  0  0  0  0  0  0  0  0
  -22.9679   16.0582  -32.0354 H   0  0  0  0  0  0  0  0  0  0  0  0
  -21.1753   16.1736  -32.0354 H   0  0  0  0  0  0  0  0  0  0  0  0
  -20.7111   19.1385  -30.6438 H   0  0  0  0  0  0  0  0  0  0  0  0
  -20.5313   17.9935  -32.0161 H   0  0  0  0  0  0  0  0  0  0  0  0
  -21.8689   19.1925  -32.0161 H   0  0  0  0  0  0  0  0  0  0  0  0
  -23.9680   18.1906  -29.6857 H   0  0  0  0  0  0  0  0  0  0  0  0
  -23.6067   19.0145  -31.2405 H   0  0  0  0  0  0  0  0  0  0  0  0
  -24.2319   17.3306  -31.2405 H   0  0  0  0  0  0  0  0  0  0  0  0
  -19.6843   16.7950  -29.6716 H   0  0  0  0  0  0  0  0  0  0  0  0
  -19.0135   16.3750  -27.2951 H   0  0  0  0  0  0  0  0  0  0  0  0
  -19.3309   19.6672  -22.1740 H   0  0  0  0  0  0  0  0  0  0  0  0
  -20.8506   19.4710  -20.0919 H   0  0  0  0  0  0  0  0  0  0  0  0
  -22.4851   17.4958  -20.3646 H   0  0  0  0  0  0  0  0  0  0  0  0
  -21.8925   15.4857  -24.1303 H   0  0  0  0  0  0  0  0  0  0  0  0
  -22.5170   14.6970  -26.5900 H   0  0  0  0  0  0  0  0  0  0  0  0
  -21.9296   12.1510  -27.3947 H   0  0  0  0  0  0  0  0  0  0  0  0
  -24.0248   13.3464  -27.9677 H   0  0  0  0  0  0  0  0  0  0  0  0
  -23.0578   14.5649  -28.9025 H   0  0  0  0  0  0  0  0  0  0  0  0
  -23.2662   11.5852  -29.5391 H   0  0  0  0  0  0  0  0  0  0  0  0
  -24.1188   12.9115  -30.4016 H   0  0  0  0  0  0  0  0  0  0  0  0
  -22.0316   12.1552  -31.5264 H   0  0  0  0  0  0  0  0  0  0  0  0
  -22.0362   13.9136  -31.0290 H   0  0  0  0  0  0  0  0  0  0  0  0
  -20.5486   11.6060  -29.7784 H   0  0  0  0  0  0  0  0  0  0  0  0
  -19.9172   13.1365  -30.5777 H   0  0  0  0  0  0  0  0  0  0  0  0
  -19.7573   12.9936  -28.0281 H   0  0  0  0  0  0  0  0  0  0  0  0
  -20.5040   14.4718  -28.7760 H   0  0  0  0  0  0  0  0  0  0  0  0
  -21.7012   14.0603  -22.3651 H   0  0  0  0  0  0  0  0  0  0  0  0
  -20.2688   13.0459  -20.6068 H   0  0  0  0  0  0  0  0  0  0  0  0
  -17.8005   13.1838  -20.8030 H   0  0  0  0  0  0  0  0  0  0  0  0
  -18.1935   15.3273  -24.4334 H   0  0  0  0  0  0  0  0  0  0  0  0
  -23.0336   17.2653  -25.9929 H   0  0  0  0  0  0  0  0  0  0  0  0
  -23.7110   17.6870  -28.3720 H   0  0  0  0  0  0  0  0  0  0  0  0
  1  2  1  0
  2  3  1  0
  2  4  1  0
  2  5  1  0
  5  6  2  0
  6  7  1  0
  7  8  2  0
  8  9  1  0
  9 10  1  0
 10 11  2  0
 10 12  1  0
 12 13  2  0
 13 14  1  0
 14 15  1  0
 15 16  2  0
  9 17  1  0
 17 18  1  0
 18 19  2  0
 18 20  1  0
 20 21  1  0
 21 22  1  0
 22 23  1  0
 23 24  1  0
 24 25  1  0
 25 26  1  0
 17 27  1  0
 27 28  2  0
 28 29  1  0
 29 30  2  0
 30 31  1  0
 31 32  2  0
  8 33  1  0
 33 34  2  0
 34  5  1  0
 16 12  1  0
 26 21  1  0
 32 27  1  0
  1 35  1  0
  1 36  1  0
  1 37  1  0
  3 38  1  0
  3 39  1  0
  3 40  1  0
  4 41  1  0
  4 42  1  0
  4 43  1  0
  6 44  1  0
  7 45  1  0
 13 46  1  0
 14 47  1  0
 15 48  1  0
 17 49  1  0
 20 50  1  0
 21 51  1  0
 22 52  1  0
 22 53  1  0
 23 54  1  0
 23 55  1  0
 24 56  1  0
 24 57  1  0
 25 58  1  0
 25 59  1  0
 26 60  1  0
 26 61  1  0
 28 62  1  0
 29 63  1  0
 30 64  1  0
 32 65  1  0
 33 66  1  0
 34 67  1  0
M  END
>  <meeko>  (9) 
{"free_energy": -8.417, "intermolecular_energy": -10.804, "internal_energy": -3.243}

$$$$

